<routes>
    <route id="-10160480#6_-5608516#2.qPKW" edges="-10160480#6 16356001#0 -10262979 -10160480#6 -30417610#0 -30417608#7 -30417608#6 -30417608#3 -30417608#2 -30417608#0 -773840053#9 -773840053#7 -773840053#6 -773840053#3 -773840053#1 -10160325 -10160219#3 -10160219#1 -10160219#0 10238741#0 10238741#2 -374891032#6 -374891032#1 -306492922#2 12099312#0 89722513#0 89722513#6 11648862#0 11648862#1 -12096024#3 -13438734#1 -12096024#0 28628933#1 -12827947 44140512#4 44140512#6 44140512#7 -22874521#2 -14359560#2 -14359560#1 -14359560#0 -14359544#2 -773840038 -14612479#0 -14612492#1 -14359499#2 14608741#2 14608741#3 14609200 44140516#0 44140516#1 14609504#0 -44139876#4 -44139876#1 -44139876#0 15403953 15404047#0 15404047#1 15404047#2 44139875#0 44139875#2 44139875#3 44139875#5 10425127#1 22987205#0 22987205#2 22987205#4 22987205#5 22987205#7 22987205#8 22987205#9 22987205#12 22987205#15 -773840031 -44139881#15 -44139881#10 -44139881#8 -44139881#6 -44139881#4 -25151294#1 -43989966#6 -10594783#3 -10594783#2 10306764#0 10306764#3 10306764#5 15522127#0 15522127#2 -15522127#2 -16278114#1 -28599003#1 -43989962 10580657#0 10580657#2 -39626162 -10580632#3 -10580632#2 -12125018#1 -12125018#0 10158749#10 43989973#0 15219301#0 -14295058#1 137611777#5 137611777#9 137611777#11 137611777#13 12102913#0 352393621#0 352393621#6 16355922#0 10159349#0 -10159349#1 59148645#0 59148645#5 59148645#7 59148645#9 59148645#10 16356001#0 30417623#0 30417623#2 30417623#3 30417623#5 30417629#0 16356030 32304619#0 169502395#6 -27324339 20445115#0 502761567 -502761566#1 -20444872 -20444212#0 -30417647#1 -30417644#3 -11647373#6 -30417629#1 -30417623#5 -30417623#4 -30417623#2 -374480402#7 -374480402#4 -169502395#0 -97335381 -773840068 -23568018#2 -59434340 23481266#0 23481266#1 -23556069 -23481277 -36100307#5 -36100307#4 -36100307#3 -36100307#2 -36100307#1 -36100307#0 -23243815#3 -23243814 -135648751#3 -135648751#2 -9473694#1 -9473694#0 -59434351 -4478688#6 -19785611#5 -19785611#4 -19785611#3 -40301264#1 -40301263 40301262#1 -5353722#3 -5353722#2 -5353722#0 59434343 4686511#0 4686511#4 4686511#10 4686511#11 59434329#0 59434329#2 59434329#3 59434329#6 4686512 19785545 59434335 23888375#0 23888378#0 44147799#0 44147799#1 44147799#3 44147799#8 4686563#0 28047983#0 28047983#1 44147811#0 28047984 28198613#0 28198613#1 28198613#2 -23481391 23481394#1 23481394#2 23481394#4 10297766#0 10297766#1 -10297770#1 201105325#1 835458077 835458076 96897359#0 96897359#2 96897359#3 96897367#0 96897367#1 96897367#2 44289589 59434341#0 59434341#2 4542921#0 4542921#2 -13305270#2 -13305270#1 82856481 11355081#1 11355098#0 11355113#0 11355113#2 15588984#0 15588984#2 15588984#4 44289590 21990971#1 22690383#0 44289582#1 44289582#2 44289582#3 44289582#5 44289582#6 22963009 22650816 22963000#8 24824465 22650787#5 22650788#0 22650788#1 13451018#0 835377827 835377825 22821920 835377826 162799385 23035872#0 -158732035#5 -119617011#3 -119617011#2 -23107918#1 -22885405#3 -22885426#2 -22885426#1 -22885426#0 -23172901#0 123699341 123699340#1 22963001 22963002#0 22963002#1 22652394 22963000#6 22963000#7 -22650816 -22883485#1 -22650787#0 22690353#2 24824426#0 24824426#1 22885355 -26172577#0 -44289588 -22650072#5 -22650072#3 -22650072#1 22677120#0 -22677122 -96897376#4 -96897376#3 -22905826#1 -22905826#0 -10297766#1 -10297766#0 -201105327#0 835458090 835458089#0 31785579#0 835458091#0 835458086 835458085 4520762#0 4520762#5 -22689751#2 -22689751#1 201105323#3 136229641#0 -835871361#2 -43905367#4 -43905367#3 -43905367#2 -43905367#1 -43905367#0 -36933604#5 4486524#0 -4555307#5 -4520763#1 4486524#8 -4481900#7 -4481900#4 -4481900#3 -4481900#0 -871842219#2 -136229740#2 -4478687 4550190#2 -4550191#1 4550189#4 884826547 -916580602 -920216666#1 -59434345#3 -922255665#1 -4486523#1 -59434332#3 -59434339 -4486520#6 -4486520#5 -4486520#1 -916580603 -916580604#1 -935013990 -59434347#2 -916580605#1 -59434343 -23243809#5 -23243809#2 4542896#0 116907973 36100305#0 36100306#0 36100306#4 -5608516#4 -5608516#2"/>
    <route id="-10160480#6_23902803#4.qPKW" edges="-10160480#6 16356001#0 -10262979 -10160480#6 -30417610#0 -30417608#7 -30417608#6 -30417608#3 -30417608#2 -30417608#0 -773840053#9 -773840053#7 -773840053#6 -773840053#3 -773840053#1 -10160325 -10160219#3 -10160219#1 -10160219#0 10238741#0 10238741#2 -374891032#6 -374891032#1 -306492922#2 12099312#0 89722513#0 89722513#6 11648862#0 11648862#1 -12096024#3 -13438734#1 -12096024#0 28628933#1 -12827947 44140512#4 44140512#6 44140512#7 -22874521#2 -14359560#2 -14359560#1 -14359560#0 -14359544#2 -773840038 -14612479#0 -14612492#1 -14359499#2 14608741#2 14608741#3 14609200 44140516#0 44140516#1 14609504#0 -44139876#4 -44139876#1 -44139876#0 15403953 15404047#0 15404047#1 15404047#2 44139875#0 44139875#2 44139875#3 44139875#5 10425127#1 22987205#0 22987205#2 22987205#4 22987205#5 22987205#7 22987205#8 22987205#9 22987205#12 22987205#15 -773840031 -44139881#15 -44139881#10 -44139881#8 -44139881#6 -44139881#4 -25151294#1 -43989966#6 -10594783#3 -10594783#2 10306764#0 10306764#3 10306764#5 15522127#0 15522127#2 -15522127#2 -16278114#1 -28599003#1 -43989962 10580657#0 10580657#2 -39626162 -10580632#3 -10580632#2 -12125018#1 12125018#1 10580632#1 10580632#3 39626162 43989969#0 43989969#1 -43989964 -43989965#7 -10306775#2 -10306764#4 -10306764#2 43989965#0 -10306731#2 -10306731#0 43989971#11 43989966#0 -30417443#8 -10306621 -10306618#0 -30417443#3 -30417443#1 14298466#0 14298466#1 -19781247#1 -19781247#0 -12824357#3 -12824357#2 -15398114 14358948#0 -14298480#0 13440054#7 14298553 883720417#4 14359221#1 15398710 -44139875#5 -44139875#4 -44139875#2 -44139875#1 -14611420#2 -15403658#0 -44139874#2 -14609504#4 10424879#0 10424879#1 44140515#1 44140515#3 12827739#0 -10426324#2 -23337467#1 -44140514#1 -10426322 -44140511#2 -15804650 -12828632 28628933#3 -13438439 -44140512#5 -44140512#3 -44140512#2 -89722513#6 -89722513#5 12827766 89731986 374891032#0 374891032#2 -10238741#2 -10238741#1 -30417510#5 -30417510#4 -30417510#3 10159674#0 10159674#2 -10357412#1 -10357412#0 -10159855#1 -10159855#0 10159423#1 -10159349#1 59148645#0 59148645#5 59148645#7 59148645#9 59148645#10 10160480#0 10262979 30417623#0 30417623#2 30417623#3 30417623#5 30417629#0 16356030 32304619#0 169502395#6 21002703#2 -48611613#5 21002703#6 21002934 21002939#0 21002939#1 -11064750#12 374447541#3 374447715#0 11064752#0 11064752#2 -4586344#8 137918300 -76198318#6 -23546527#2 -72758728#3 -137918289#1 -137918289#0 69481200#0 69481200#2 -735483746 -64881259#5 -64881259#3 -64881248#6 -64881248#5 -59652358#2 -59652353#1 8180073#0 8180073#7 8180073#8 8180073#9 -5364292#5 -5364292#4 59604053#0 220245527#0 220245527#1 12310605 939446183#0 -939446183#1 -12310605 -220245527#3 -220245527#0 -59604053#7 -59604052 -169502390#2 -456185035#3 -65414187#4 -65414187#1 -65414187#0 127270383#6 127270383#8 21002703#5 -48611613#4 21002939#1 374447541#1 374447541#3 374447715#0 137918296#0 137918296#1 137918296#3 59652353#0 -64881260#3 54948400#0 -64881243#0 -64881239 59361653#3 59361653#5 75104950#0 220245525#7 939449491#0 939449491#4 939448519#0 939448519#1 185054624#2 185054624#3 939464283 120921144#0 -120921144#2 -939464283 -185054624#6 39969213#0 -185054624#1 -120920693#5 -22407947#1 120920679#1 391417045#3 59652359#1 306980465#2 -4884447#5 69724792 220245525#5 -75104950#2 -59361653#7 -59361653#4 64881239 -54948399 -59652350#5 -59652350#3 -59652350#0 -8180073#9 138949255#1 -5364292#4 59604053#0 -60820612#1 60820616#0 60820616#1 60820616#5 -220245524#4 -220245524#3 220245524#3 220245524#4 220245524#5 604010933#0 604010933#4 604010933#9 23942044 -59604053#7 5364292#0 5364292#5 59652350#0 59361653#0 64881239 64881243#0 -54948400#0 64881260#0 -59652353#1 -137918296#4 -137918296#2 137918296#1 23755691#0 -76198318#6 -23546527#2 -72758728#3 -64881259#7 -64881259#5 -64881259#3 -64881245#2 -64881245#0 -23546529#14 -23546529#12 -23546529#6 75104953#1 -23546529#2 939449491#4 939448519#0 -120920693#5 -22407947#1 120920679#1 391417045#3 -22407941 -4884447#5 -4884447#4 -4884447#1 -939446183#9 69724780#0 -69724789 120920675#3 120402879#0 120402879#2 120402879#5 120402879#7 24325171#0 24325171#1 -220245524#2 -306980455 -120402874#1 -120402876 120920694#2 121661512#0 -35393355#2 121661515 -35393355#0 -35393354#2 -120403553#1 -22407942#3 -22407942#2 -22407942#1 -306980456 -120403556#2 -120403556#1 -120403556#0 -719265202#5 5354262 306980458 36100303#0 48587081#0 20143421 20142892#0 20142892#2 23902803#0 23902803#3 23902803#4"/>
    <route id="-10160480#6_165782029#1-AddedOnRampEdge.qPKW" edges="-10160480#6 16356001#0 -42973794#1 -59148645#10 -59148645#9 -59148645#8 -59148645#6 -59148645#4 -16355922#1 -352393621#6 -352393621#5 -12102913#3 -137611777#13 -137611777#11 -137611777#9 -137611777#8 -137611777#3 -137611781 -110256863#12 -110256863#11 -110256863#7 -110256863#6 -110256863#3 96930356 927262471 -11085908#3 11085983#0 -23769796 -30417388 30416781 245506151#0 245506151#2 839599266 39244315#0 39244315#1 30417141#0 -123570688#5 30131563 -123570686#2 10805330#0 10805330#2 10805330#3 10805330#4 11490035#0 11490035#1 12092674#0 -10755322#1 -10755322#0 59434336#1 -22564929 -11354739 -59434342#2 -4542914#3 -22727744#1 -11256718#2 -44289584#3 -15598388#1 4542921#3 4542921#5 4542921#9 4542921#11 22650072#0 22650072#2 22650072#4 22650076 44289580#0 22650112 22650084 44289582#0 -22690383#1 21990971#2 21990971#3 21990971#6 21990971#8 21990971#10 21990971#11 123699343#0 123699343#1 123699344#0 123699344#1 123699344#2 -22650788#1 -22650788#0 22751907 119617011#3 -158732035#1 -23172897#1 -23172897#0 23353631 -23353646 -44289592 -44289583 -23353745#1 -23353745#0 -23353735 -23353736#1 23353956 -23353684 -23582172 -121802804#3 -121802804#1 -23354063#2 -23354063#0 5364660#0 -23162135#1 -41432522#3 23180835#0 -121799531#1 -21554059#6 -21554059#4 -21554059#2 -21554059#1 9527811 157854144 4597297#0 -24044936#0 -24044938#1 24044932 24628560#2 24044913#1 -24044912#0 132683879#6 23612737#0 -382503058#1 -23152232#2 23116929#0 24044835 24255255 -24272131 23116929#4 23116929#5 41432524#0 -24044840#5 24255249#4 24255249#5 10305508#2 -24272144 10305508#4 -10305508#4 24272144 -10305508#2 -10305508#1 41432524#4 135481706#0 504519865#0 504519864#0 923197968 504519863 25723389#2 15242076 923197966#0 745421450#0 745421450#1 -296677379#1 -26195578#0 -26431716#1 -26431716#0 25772181#2 25772181#4 185171133 185171134#5 10594628#0 10594628#1 10594628#2 -10594629#2 -49234759 -49234767#0 49234754 49876881 -27046428#4 -27046428#2 139239564#2 139239564#4 23639879#0 23639879#1 23639879#2 -24758142#2 -24758141#2 -24758141#1 -24758141#0 23639879#6 -49628809#5 -49628809#4 -49628809#2 -49628809#1 -49628809#0 -10267549 -176968949 -41881463#0 -37337306#3 -37367016#2 -37367016#1 -37367016#0 49023021#2 -49023020#6 -49023020#4 -49023020#3 -49023020#2 -49023020#1 -22762272 184905265 10267125#4 10267125#5 10267125#0 10267125#2 10267448 22762273 49023017 21137923#1 21137923#2 21137923#3 22663188#0 -22663188#1 21137923#0 -49023017 49023020#0 49023020#2 49023020#3 49023020#4 49023020#6 49023023#0 49023023#2 49023023#3 49023023#4 23612522 90276559#0 745421458#3 745421457#0 4597219#0 4597219#1 4597219#3 4597219#4 4597219#6 4597219#7 4597219#9 15242059#0 15242059#0-AddedOffRampEdge 15242068 70330627#1 70330627#2 70330627#3 70330627#4 70330628#1 15242065 165782029#1-AddedOnRampEdge"/>
    <route id="-10231352#3_60187191.qPKW" edges="-10231352#3 10231352#0 10231352#4 509722712#0 175877891#0 175877891#2 175877891#4 -135481705 -355438288#11 -355438288#7 -355438288#4 -355438288#2 -4686567#5 -4686567#0 -159215112#7 -159215112#4 -159215112#2 -159215112#1 -159215112#0 -28871871#0 -125492784#2 -125492787 -125492786#2 -125492786#1 -125492786#0 -25653234#2 -25653234#1 -25653234#0 25653234#0 25653234#1 25653234#2 5530782 125492786#1 125492786#2 125492787 397593464 125492784#3 -125492784#4 -125492784#2 -125492787 -125492786#2 -125492786#1 -125492786#0 -25653234#2 -25653234#1 -25653234#0 25653234#0 25653234#1 25653234#2 5530782 125492786#1 125492786#2 125492787 397593464 -4697613#2 4697613#1 -125492784#2 -125492787 -125492786#2 -125492786#1 -125492786#0 23612657 125332642#0 125332642#2 136230790 175877890 175877883#1 509722710 -10231352#5 26822125 -26822126#0 137611767#3 137611767#4 782024795 41467053 797801067#0 797801067#1 797801067#2 41467058 125332638#0 125332638#2 41495386 25703734 410929563#0 47267401 24628552#1 -24628553 -125812399 161921017 410929561#0 24269947 126066313 24269944#0 126066315 -25705105 -24376211 25705098#0 25705098#1 25705098#2 25705098#3 25705098#4 382503059#0 24269954#14 41474514#0 -24466002#2 -24466002#1 -24466002#0 41530029#0 41530029#2 41530029#4 41530029#7 -49876872#4 48981698 48981699#1 -296677376#1 49876863 -47267419#3 -10305488#3 745421450#1 10305177#0 25772180 10305146 745421451 296677411#0 296677411#1 15242077 138628392#0 745421448 15242111#0 23152231#0 22817143#2 22817143#0 23152228#0 60187191 48981682 138628394 7817459#0 7817477 40712921 446570203 7817488#1 7817488#2 -47492777#4 -47492777#3 22817143#0 23152228#0 60187191"/>
    <route id="-10231352#3_-59652360#0.qPKW" edges="-10231352#3 10231352#0 10231352#4 509722712#0 175877891#0 175877891#2 175877891#4 -135481705 -355438288#11 -355438288#7 -355438288#4 -355438288#2 -4686567#5 -4686567#0 -159215112#7 -159215112#4 -159215112#2 -159215112#1 -159215112#0 -28871871#0 -125492784#2 -125492787 -125492786#2 -125492786#1 -125492786#0 -25653234#2 -25653234#1 -25653234#0 25653234#0 25653234#1 25653234#2 5530782 125492786#1 125492786#2 125492787 397593464 28871871#0 28871871#1 159215112#1 159215112#2 159215112#3 159215112#5 4686567#0 -32446223#4 -32446222#13 -60818117#2 -32446222#4 -32446222#2 -355438288#4 -355438288#2 -4686567#5 -4686567#0 -159215112#7 -159215112#4 -159215112#2 27885933#0 49988587 -159215112#0 -28871871#0 125492784#3 125492784#5 26584531#0 -26584531#0 41463557#0 41463557#4 44366150#0 44366150#2 48905469 -48427746#2 -48427746#1 59652360#0 -59652360#0"/>
    <route id="-10231352#3_-59652360#0.1.qPKW" edges="-10231352#3 10231352#0 10231352#4 509722712#0 175877891#0 175877891#2 175877891#4 -135481705 -355438288#11 -355438288#7 -355438288#4 -355438288#2 -4686568#5 -51193721#3 -51193721#2 -51193721#1 24652294#0 -49732262#1 -159215093 -49732261#0 410929571 -41463557#4 -41463557#3 -125492784#5 -125492784#4 -125492784#2 -125492787 -125492786#2 -125492786#1 -125492786#0 -25653234#2 -25653234#1 -25653234#0 25653234#0 25653234#1 25653234#2 5530782 125492786#1 125492786#2 125492787 397593464 28871871#0 28871871#1 -49988587 -27885933#1 159215112#2 159215112#3 159215112#5 4686567#0 -32446223#4 -32446222#13 -32446222#9 -32446222#7 -32446222#5 -32446222#4 -32446222#2 -355438288#4 -60818108#4 -60818099#3 -4686567#5 -4686567#0 -159215112#7 -159215112#4 -159215112#2 27885933#0 49988587 -159215112#0 -28871871#0 125492784#3 125492784#5 26584531#0 -26584531#0 41463557#0 41463557#4 44366150#0 44366150#2 48905469 -48427746#2 -48427746#1 59652360#0 -59652360#0"/>
    <route id="-10231352#3_-59652360#0.2.qPKW" edges="-10231352#3 10231352#0 10231352#4 509722712#0 175877891#0 175877891#2 175877891#4 -135481705 -355438288#11 -355438288#7 -355438288#4 -355438288#2 -4686568#5 -51193721#3 -51193721#2 -51193721#1 24652294#0 -49732262#1 -159215093 -49732261#0 410929571 -41463557#4 -41463557#3 -125492784#5 -125492784#4 -125492784#2 -125492787 -125492786#2 -125492786#1 -125492786#0 -25653234#2 -25653234#1 -25653234#0 25653234#0 25653234#1 25653234#2 5530782 125492786#1 125492786#2 125492787 397593464 28871871#0 28871871#1 159215112#1 159215112#2 159215112#3 159215112#5 4686567#0 -32446223#4 -32446222#13 -60818117#2 -32446222#4 -32446222#2 -355438288#4 -60818108#4 -60818099#3 -4686567#5 -4686567#0 -159215112#7 -159215112#4 -159215112#2 27885933#0 49988587 -159215112#0 -28871871#0 125492784#3 125492784#5 26584531#0 -26584531#0 41463557#0 41463557#4 44366150#0 44366150#2 48905469 -48427746#2 -48427746#1 59652360#0 -59652360#0"/>
    <route id="-10231352#3_60187191.1.qPKW" edges="-10231352#3 10231352#0 10231352#4 509722712#0 175877891#0 175877891#2 175877891#4 -135481705 -355438288#11 -355438288#7 -355438288#4 -355438288#2 -4686568#5 -51193721#3 -51193721#2 -51193721#1 24652294#0 -49732262#1 -159215093 -49732261#0 410929571 -41463557#4 -41463557#3 26584531#0 -26584579#2 -10311259#1 10311259#0 26584579#0 41463555 4697613#1 -125492784#2 -125492787 -125492786#2 -125492786#1 -125492786#0 23612657 125332642#0 125332642#2 136230790 175877890 175877883#1 509722710 -10231352#5 26822125 -26822126#0 137611767#3 137611767#4 782024795 41467053 797801067#0 797801067#1 797801067#2 41467058 125332638#0 125332638#2 41495386 25703734 410929563#0 47267401 24628552#1 -24628553 -125812399 161921017 410929561#0 24269947 126066313 24269944#0 126066315 -25705105 -24376211 25705098#0 25705098#1 25705098#2 25705098#3 25705098#4 382503059#0 24269954#14 41474514#0 -24466002#2 -24466002#1 -24466002#0 41530029#0 41530029#2 41530029#4 41530029#7 -49876872#4 48981698 48981699#1 -296677376#1 49876863 -47267419#3 -10305488#3 745421450#1 10305177#0 25772180 10305146 745421451 296677411#0 296677411#1 15242077 138628392#0 745421448 15242111#0 23152231#0 22817143#2 22817143#0 23152228#0 60187191 48981682 138628394 7817459#0 7817477 40712921 446570203 7817488#1 7817488#2 -47492777#4 -47492777#3 22817143#0 23152228#0 60187191"/>
    <route id="-10231352#3_-59652360#0.3.qPKW" edges="-10231352#3 10231352#0 10231352#4 509722712#0 175877891#0 175877891#2 175877891#4 -135481705 -355438288#11 -355438288#7 -355438288#4 -60818108#4 -60818099#3 -4686567#5 -4686567#0 -159215112#7 -159215112#4 -159215112#2 27885933#0 49988587 -159215112#0 -28871871#0 -125492784#2 -125492787 -125492786#2 -125492786#1 -125492786#0 -25653234#2 -25653234#1 -25653234#0 25653234#0 25653234#1 25653234#2 5530782 125492786#1 125492786#2 125492787 397593464 28871871#0 28871871#1 -49988587 -27885933#1 159215112#2 159215112#3 159215112#5 4686567#0 -32446223#4 -32446222#13 -32446222#9 -32446222#7 -32446222#5 -32446222#4 -32446222#2 -355438288#4 -60818108#4 -60818099#3 -4686567#5 -4686567#0 -159215112#7 -159215112#4 -159215112#2 27885933#0 49988587 -159215112#0 -28871871#0 125492784#3 125492784#5 26584531#0 -26584531#0 41463557#0 41463557#4 44366150#0 44366150#2 48905469 -48427746#2 -48427746#1 59652360#0 -59652360#0"/>
    <route id="-10231352#3_-59652360#0.4.qPKW" edges="-10231352#3 10231352#0 10231352#4 509722712#0 175877891#0 175877891#2 175877891#4 -135481705 -355438288#11 -355438288#7 -355438288#4 -60818108#4 -60818099#3 -4686567#5 -4686567#0 -159215112#7 -159215112#4 -159215112#2 27885933#0 49988587 -159215112#0 -28871871#0 -125492784#2 -125492787 -125492786#2 -125492786#1 -125492786#0 -25653234#2 -25653234#1 -25653234#0 25653234#0 25653234#1 25653234#2 5530782 125492786#1 125492786#2 125492787 397593464 28871871#0 28871871#1 159215112#1 159215112#2 159215112#3 159215112#5 4686567#0 -32446223#4 -32446222#13 -60818117#2 -32446222#4 -32446222#2 -355438288#4 -355438288#2 -4686567#5 -4686567#0 -159215112#7 -159215112#4 -159215112#2 27885933#0 49988587 -159215112#0 -28871871#0 125492784#3 125492784#5 26584531#0 -26584531#0 41463557#0 41463557#4 44366150#0 44366150#2 48905469 -48427746#2 -48427746#1 59652360#0 -59652360#0"/>
    <route id="-10231352#3_-59652360#0.5.qPKW" edges="-10231352#3 10231352#0 10231352#4 509722712#0 175877891#0 175877891#2 175877891#4 -135481705 -355438288#11 -355438288#7 32446222#0 32446222#3 32446222#5 32446222#6 32446222#8 32446222#10 32446223#0 4686567#1 -4686568#5 -51193721#3 -51193721#2 -51193721#1 24652294#0 -49732262#1 -159215093 -49732261#0 -59652354#12 48853037 -48853037 -59652354#8 -59652354#7 44366154 26584621 59652360#0 -59652360#0"/>
    <route id="-10231352#3_60187191.2.qPKW" edges="-10231352#3 10231352#0 10231352#4 509722712#0 175877891#0 175877891#2 175877891#4 -135481705 -355438288#11 -355438288#7 32446222#0 32446222#3 60818117#0 32446222#10 32446223#0 -4686567#0 -159215112#7 -159215112#4 -159215112#2 -159215112#1 -159215112#0 -28871871#0 -125492784#2 -125492787 -125492786#2 -125492786#1 -125492786#0 -25653234#2 -25653234#1 -25653234#0 25653234#0 25653234#1 25653234#2 5530782 125492786#1 125492786#2 125492787 397593464 -4697613#2 4697613#1 -125492784#2 -125492787 -125492786#2 -125492786#1 -125492786#0 23612657 125332642#0 125332642#2 136230790 175877890 175877883#1 509722710 -10231352#5 26822125 -26822126#0 137611767#3 137611767#4 782024795 41467053 797801067#0 797801067#1 797801067#2 41467058 125332638#0 125332638#2 41495386 25703734 410929563#0 47267401 24628552#1 -24628553 -125812399 161921017 410929561#0 24269947 126066313 24269944#0 126066315 -25705105 -24376211 25705098#0 25705098#1 25705098#2 25705098#3 25705098#4 382503059#0 24269954#14 41474514#0 -24466002#2 -24466002#1 -24466002#0 41530029#0 41530029#2 41530029#4 41530029#7 -49876872#4 48981698 48981699#1 -296677376#1 49876863 -47267419#3 -10305488#3 745421450#1 10305177#0 25772180 10305146 745421451 296677411#0 296677411#1 15242077 138628392#0 745421448 15242111#0 23152231#0 22817143#2 22817143#0 23152228#0 60187191 48981682 138628394 7817459#0 7817477 40712921 446570203 7817488#1 7817488#2 -47492777#4 -47492777#3 22817143#0 23152228#0 60187191"/>
    <route id="-10231352#3_60187191.3.qPKW" edges="-10231352#3 10231352#0 10231352#4 509722712#0 175877891#0 175877891#2 175877891#4 -135481705 -355438288#11 -355438288#7 32446222#0 32446222#3 60818117#0 32446222#10 32446223#0 -4686567#0 -159215112#7 -159215112#4 -159215112#2 -159215112#1 -159215112#0 -28871871#0 -125492784#2 -125492787 -125492786#2 -125492786#1 -125492786#0 -25653234#2 -25653234#1 -25653234#0 25653234#0 25653234#1 25653234#2 5530782 125492786#1 125492786#2 125492787 397593464 125492784#3 -125492784#4 -125492784#2 -125492787 -125492786#2 -125492786#1 -125492786#0 -25653234#2 -25653234#1 -25653234#0 25653234#0 25653234#1 25653234#2 5530782 125492786#1 125492786#2 125492787 397593464 -4697613#2 4697613#1 -125492784#2 -125492787 -125492786#2 -125492786#1 -125492786#0 23612657 125332642#0 125332642#2 136230790 175877890 175877883#1 509722710 -10231352#5 26822125 -26822126#0 137611767#3 137611767#4 782024795 41467053 797801067#0 797801067#1 797801067#2 41467058 125332638#0 125332638#2 41495386 25703734 410929563#0 47267401 24628552#1 -24628553 -125812399 161921017 410929561#0 24269947 126066313 24269944#0 126066315 -25705105 -24376211 25705098#0 25705098#1 25705098#2 25705098#3 25705098#4 382503059#0 24269954#14 41474514#0 -24466002#2 -24466002#1 -24466002#0 41530029#0 41530029#2 41530029#4 41530029#7 -49876872#4 48981698 48981699#1 -296677376#1 49876863 -47267419#3 -10305488#3 745421450#1 10305177#0 25772180 10305146 745421451 296677411#0 296677411#1 15242077 138628392#0 745421448 15242111#0 23152231#0 22817143#2 22817143#0 23152228#0 60187191 48981682 138628394 7817459#0 7817477 40712921 446570203 7817488#1 7817488#2 -47492777#4 -47492777#3 22817143#0 23152228#0 60187191"/>
    <route id="-10231352#3_-59652360#0.6.qPKW" edges="-10231352#3 10231352#0 10231352#4 509722712#0 175877891#0 175877891#2 175877891#4 -135481705 -355438288#11 -355438288#7 32446222#0 32446222#3 60818117#0 32446222#10 32446223#0 -4686567#0 -159215112#7 -159215112#4 -159215112#2 -159215112#1 -159215112#0 -28871871#0 -125492784#2 -125492787 -125492786#2 -125492786#1 -125492786#0 -25653234#2 -25653234#1 -25653234#0 25653234#0 25653234#1 25653234#2 5530782 125492786#1 125492786#2 125492787 397593464 125492784#3 -125492784#4 -125492784#2 -125492787 -125492786#2 -125492786#1 -125492786#0 -25653234#2 -25653234#1 -25653234#0 25653234#0 25653234#1 25653234#2 5530782 125492786#1 125492786#2 125492787 397593464 28871871#0 28871871#1 -49988587 -27885933#1 159215112#2 159215112#3 159215112#5 4686567#0 -32446223#4 -32446222#13 -32446222#9 -32446222#7 -32446222#5 -32446222#4 -32446222#2 -355438288#4 -60818108#4 -60818099#3 -4686567#5 -4686567#0 -159215112#7 -159215112#4 -159215112#2 27885933#0 49988587 -159215112#0 -28871871#0 125492784#3 125492784#5 26584531#0 -26584531#0 41463557#0 41463557#4 44366150#0 44366150#2 48905469 -48427746#2 -48427746#1 59652360#0 -59652360#0"/>
    <route id="-10231352#3_-59652360#0.7.qPKW" edges="-10231352#3 10231352#0 10231352#4 509722712#0 175877891#0 175877891#2 175877891#4 -135481705 -355438288#11 -355438288#7 32446222#0 32446222#3 60818117#0 32446222#10 32446223#0 -4686567#0 -159215112#7 -159215112#4 -159215112#2 -159215112#1 -159215112#0 -28871871#0 -125492784#2 -125492787 -125492786#2 -125492786#1 -125492786#0 -25653234#2 -25653234#1 -25653234#0 25653234#0 25653234#1 25653234#2 5530782 125492786#1 125492786#2 125492787 397593464 125492784#3 -125492784#4 -125492784#2 -125492787 -125492786#2 -125492786#1 -125492786#0 -25653234#2 -25653234#1 -25653234#0 25653234#0 25653234#1 25653234#2 5530782 125492786#1 125492786#2 125492787 397593464 28871871#0 28871871#1 159215112#1 159215112#2 159215112#3 159215112#5 4686567#0 -32446223#4 -32446222#13 -60818117#2 -32446222#4 -32446222#2 -355438288#4 -60818108#4 -60818099#3 -4686567#5 -4686567#0 -159215112#7 -159215112#4 -159215112#2 27885933#0 49988587 -159215112#0 -28871871#0 125492784#3 125492784#5 26584531#0 -26584531#0 41463557#0 41463557#4 44366150#0 44366150#2 48905469 -48427746#2 -48427746#1 59652360#0 -59652360#0"/>
    <route id="-10231352#3_59652360#0.qPKW" edges="-10231352#3 10231352#0 10231352#4 509722712#0 175877891#0 175877891#2 175877891#4 -135481705 -355438288#11 -355438288#7 32446222#0 32446222#3 60818117#0 32446222#10 32446223#0 4686567#1 -4686568#5 -51193721#3 -51193721#2 -51193721#1 24652294#0 -49732262#1 -159215093 -49732261#0 410929571 44366150#0 44366150#2 48905469 -48427746#2 -48427746#1 59652360#0 -59652360#0 59652360#0"/>
    <route id="-10231352#3_-59652360#0.8.qPKW" edges="-10231352#3 10231352#0 10231352#4 509722712#0 175877891#0 175877891#2 175877891#4 -135481705 -355438288#11 -355438288#7 32446222#0 32446222#3 60818117#0 32446222#10 32446223#0 4686567#1 -4686568#5 -51193721#3 -51193721#2 -51193721#1 24652294#0 -49732262#1 -159215093 -49732261#0 410929571 44366150#0 44366150#2 48905469 -48427746#2 -48427746#1 59652360#0 -59652360#0"/>
    <route id="-10231352#3_-129215666#3.qPKW" edges="-10231352#3 10231352#0 26822125 -26822126#0 137611767#3 137611767#4 782024795 27616490#0 27616490#2 355439990#0 355439990#1 24628557 233572670 4597298#0 4697611 125812399 41467057#0 45379117#0 -45379123#0 47267191#0 47267191#2 41467057#2 41467057#3 -26415411#8 -26415411#2 -26415411#1 -10633408#2 -10633408#1 26433296#0 26433296#1 24465941#0 24605515#0 24605515#1 24605515#2 45379105#0 -41474514#5 10633407#0 24605469 24605468 -41530029#6 -41530029#3 24605487#1 24605487#2 24605487#3 296677391 24605501#0 24605501#1 296677376#1 -48981699#1 -48981699#0 296677380#1 296677378 170091749 -26822206#4 -48981692#0 48981685#2 -26431708#3 48981688#0 -41474760#1 -41474759 -26841785#2 -26841785#1 41881808 -41436658 -129215669 -129215670#1 -129215670#0 4686598#3 4686598#1 -4686601#4 -4686601#3 -745248878 41436665#0 41495391 -41882082#2 -41882082#1 -121166127#6 -121166127#5 -121166127#4 -121166127#1 -121166127#0 -24645065#13 -24645065#11 -24645065#7 -24645065#6 -121153713 -121153715#3 -121153717#2 -121153717#1 -121153702#0 121153722#6 121153722#9 -129215683#0 -129215684#2 -24645062 -129215679#1 -41437263#4 -129215666#3"/>
    <route id="-10231352#3_103598245#1.qPKW" edges="-10231352#3 41467054 41467055 -41495387#4 26551094#0 26551094#1 26822128#1 26822128#2 27046453#0 50249412#0 50249417#0 -60581031#7 -60581031#6 -50249451#1 -50249451#0 129215675#3 26841785#0 26841785#2 41474759 41474760#1 41474760#3 41474760#5 41881807#0 41881807#1 41881807#2 41881807#4 41881807#5 41881807#6 41881807#7 41474758#0 41474758#2 5712268#0 5712268#1 5712268#4 5712268#5 25536954#3 -5712267#14 -5712267#13 -5712267#12 -5712267#11 -5712267#10 -5712267#9 -5712267#7 -5712267#6 -5712267#5 -5712267#4 -5712267#2 -5712267#0 26433307 41475681 -27639437#4 -194817314#3 -10267102#1 10267102#1 10267345 27639437#0 -194817304 -170222308 5712267#0 -49619078#1 -49619078#0 -49619097#1 -49619097#0 103598245#1"/>
    <route id="-10231352#3_-194817316.qPKW" edges="-10231352#3 41467054 41467055 -41495387#4 26551094#0 26551094#1 26822128#1 26822128#2 27046453#0 50249412#0 50249417#0 -60581031#7 -60581031#6 -50249451#1 -50249451#0 129215675#3 26841785#0 26841785#2 41474759 41474760#1 41474760#3 41474760#5 41881807#0 41881807#1 41881807#2 41881807#4 41881807#5 41881807#6 41881807#7 41474758#0 41474758#2 5712268#0 5712268#1 5712268#4 5712268#5 25536954#3 -5712267#14 -5712267#13 -5712267#12 -5712267#11 -5712267#10 -5712267#9 -5712267#7 -5712267#6 -5712267#5 -5712267#4 -5712267#2 -5712267#0 26433307 41475681 -27639437#4 -194817314#3 -10267102#1 10267102#1 41432539#0 -194817316"/>
    <route id="-10231352#3_10267102#1.qPKW" edges="-10231352#3 41467054 41467055 -41495387#4 26551094#0 26551094#1 26822128#1 26822128#2 27046453#0 50249412#0 50249417#0 -60581031#7 -60581031#6 -50249451#1 -50249451#0 129215675#3 26841785#0 26841785#2 41474759 41474760#1 41474760#3 41474760#5 41881807#0 41881807#1 41881807#2 41881807#4 41881807#5 41881807#6 41881807#7 41474758#0 41474758#2 5712268#0 5712268#1 5712268#4 5712268#5 25536954#3 -5712267#14 -5712267#13 -5712267#12 -5712267#11 -5712267#10 -5712267#9 -5712267#7 -5712267#6 -5712267#5 -5712267#4 -5712267#2 -5712267#0 26433307 41475681 -27639437#4 -194817314#3 -10267102#1 10267102#1"/>
    <route id="-10231352#3_-194817316.1.qPKW" edges="-10231352#3 41467054 41467055 -41495387#4 26551094#0 26551094#1 26822128#1 26822128#2 27046453#0 50249412#0 50249417#0 -60581031#7 -60581031#6 -50249451#1 -50249451#0 129215675#3 26841785#0 26841785#2 41474759 41474760#1 41474760#3 41474760#5 41881807#0 41881807#1 41881807#2 41881807#4 41881807#5 41881807#6 41881807#7 41474758#0 41474758#2 5712268#0 5712268#1 5712268#4 5712268#5 25536954#3 -5712267#14 -5712267#13 -5712267#12 -5712267#11 -5712267#10 -5712267#9 -5712267#7 -5712267#6 -5712267#5 -5712267#4 -5712267#2 -5712267#0 26433307 41475681 -27639437#4 -194817314#3 41432539#0 -194817316"/>