<?xml version="1.0" encoding="UTF-8"?>
<!-- generated on 2021-08-17 10:14:42.990893 by $Id$ v1_9_2+0000-4206cfae24
  options: -n osm.net.xml -o traffic_trips.xml <doubleminus>route-file traffic_routes.xml -e 3600 -p 1
-->
<routes xmlns:xsi="http://www.w3.org/2001/XMLSchema-instance" xsi:noNamespaceSchemaLocation="http://sumo.dlr.de/xsd/routes_file.xsd">
    <trip id="0" depart="0.00" from="22731876#0" to="-10426689#2"/>
    <trip id="1" depart="1.00" from="-35816065#1" to="-27919866#0"/>
    <trip id="2" depart="2.00" from="29586475#4" to="24645221#2"/>
    <trip id="3" depart="3.00" from="54680442#1" to="-122258377#0"/>
    <trip id="4" depart="4.00" from="-765965212" to="-10805330#1"/>
    <trip id="5" depart="5.00" from="-27625480#0" to="11064750#0"/>
    <trip id="6" depart="6.00" from="-10594618#3" to="-26170703#2"/>
    <trip id="7" depart="7.00" from="23180848" to="119353193#0"/>
    <trip id="8" depart="8.00" from="-27663227#1" to="14461464#8"/>
    <trip id="9" depart="9.00" from="413938758#2" to="-101517429"/>
    <trip id="10" depart="10.00" from="40933973#1" to="26415740#3"/>
    <trip id="11" depart="11.00" from="-49231937" to="-22883401#2"/>
    <trip id="12" depart="12.00" from="839623120" to="-48853062"/>
    <trip id="13" depart="13.00" from="-125813056" to="-130148132"/>
    <trip id="14" depart="14.00" from="47573310#0" to="15804639#0"/>
    <trip id="15" depart="15.00" from="41241561" to="28198615#2"/>
    <trip id="16" depart="16.00" from="118136408" to="89178546#7"/>
    <trip id="17" depart="17.00" from="-54851948#0" to="121166147#0"/>
    <trip id="18" depart="18.00" from="44139881#7" to="176043837#0"/>
    <trip id="19" depart="19.00" from="49364101" to="136299647#8"/>
    <trip id="20" depart="20.00" from="26700946#2" to="-115848943#0"/>
    <trip id="21" depart="21.00" from="-28628933#2" to="-38525309#4"/>
    <trip id="22" depart="22.00" from="-12125276#9" to="-29749571#3"/>
    <trip id="23" depart="23.00" from="-136230790" to="-36331742#0"/>
    <trip id="24" depart="24.00" from="22650093" to="-51499056#2"/>
    <trip id="25" depart="25.00" from="-52110716#0" to="-26991736#3"/>
    <trip id="26" depart="26.00" from="-35429001#0" to="70509117#0"/>
    <trip id="27" depart="27.00" from="23044759#0" to="161124489#4"/>
    <trip id="28" depart="28.00" from="-23887488#2" to="28097638#0"/>
    <trip id="29" depart="29.00" from="-23353956" to="-54951494#3"/>
    <trip id="30" depart="30.00" from="92478466" to="22752392#0"/>
    <trip id="31" depart="31.00" from="121574565" to="25220831#1"/>
    <trip id="32" depart="32.00" from="45767417" to="35471213#0"/>
    <trip id="33" depart="33.00" from="-28797424#1" to="-109092332#0"/>
    <trip id="34" depart="34.00" from="-43989970" to="-35467990#0"/>
    <trip id="35" depart="35.00" from="-26992634#1" to="731906837"/>
    <trip id="36" depart="36.00" from="49876929#2" to="-43905367#2"/>
    <trip id="37" depart="37.00" from="23556524#0" to="-60820616#4"/>
    <trip id="38" depart="38.00" from="60419921" to="-92478493"/>
    <trip id="39" depart="39.00" from="-35393309#1" to="-33514655#1"/>
    <trip id="40" depart="40.00" from="123082547" to="-35138281#3"/>
    <trip id="41" depart="41.00" from="138949255#1" to="54827430#2-AddedOnRampEdge"/>
    <trip id="42" depart="42.00" from="-61351087" to="-27640048#0"/>
    <trip id="43" depart="43.00" from="96751035" to="112495150"/>
    <trip id="44" depart="44.00" from="-124075062#0" to="-115891769#2"/>
    <trip id="45" depart="45.00" from="-14359264#1" to="21137919#3"/>
    <trip id="46" depart="46.00" from="36951144#4" to="-772368599"/>
    <trip id="47" depart="47.00" from="-118136422#3" to="-55593767#3"/>
    <trip id="48" depart="48.00" from="963199076" to="117181960#0"/>
    <trip id="49" depart="49.00" from="88896549" to="49305024#1"/>
    <trip id="50" depart="50.00" from="-102141357#0" to="27639953#5"/>
    <trip id="51" depart="51.00" from="24829966#1" to="118136424"/>
    <trip id="52" depart="52.00" from="-35428942" to="22779010#6"/>
    <trip id="53" depart="53.00" from="-14888323#1" to="-87821574#2"/>
    <trip id="54" depart="54.00" from="-920216669" to="802366992"/>
    <trip id="55" depart="55.00" from="49876903#0" to="-35202363#1"/>
    <trip id="56" depart="56.00" from="10805330#0" to="-24325171#1"/>
    <trip id="57" depart="57.00" from="60187241#5" to="49714194"/>
    <trip id="58" depart="58.00" from="-412990040#1" to="22730178#1"/>
    <trip id="59" depart="59.00" from="161124482" to="-22724655#1"/>
    <trip id="60" depart="60.00" from="33995445#1" to="118713804"/>
    <trip id="61" depart="61.00" from="35560487" to="117329584"/>
    <trip id="62" depart="62.00" from="-100025457" to="-45330626#2"/>
    <trip id="63" depart="63.00" from="-10244395" to="678514433"/>
    <trip id="64" depart="64.00" from="502761566#0" to="44289582#3"/>
    <trip id="65" depart="65.00" from="-42401146#2" to="-117330435#1"/>
    <trip id="66" depart="66.00" from="50249479" to="745421444"/>
    <trip id="67" depart="67.00" from="-122147369#0" to="102303627"/>
    <trip id="68" depart="68.00" from="-118925064#1" to="33711526#0"/>
    <trip id="69" depart="69.00" from="34306702" to="-162617285#5"/>
    <trip id="70" depart="70.00" from="101519575#1" to="12110831#0"/>
    <trip id="71" depart="71.00" from="-35393312#2" to="49723611#2"/>
    <trip id="72" depart="72.00" from="-7817466#1" to="-27012498#1"/>
    <trip id="73" depart="73.00" from="118713803#0" to="28198624"/>
    <trip id="74" depart="74.00" from="-26431708#3" to="-430425299"/>
    <trip id="75" depart="75.00" from="96001068" to="23180848"/>
    <trip id="76" depart="76.00" from="-87834875" to="115640697"/>
    <trip id="77" depart="77.00" from="-157279629#19" to="-28003728#1"/>
    <trip id="78" depart="78.00" from="-48981693#1" to="14359996#0"/>
    <trip id="79" depart="79.00" from="-291540973#0" to="-27663222#1"/>
    <trip id="80" depart="80.00" from="-119331339#0" to="21990974#0"/>
    <trip id="81" depart="81.00" from="-28761725#0" to="58479336"/>
    <trip id="82" depart="82.00" from="49234493#0" to="-119331333"/>
    <trip id="83" depart="83.00" from="-31282308#5" to="24269944#2"/>
    <trip id="84" depart="84.00" from="-27391012#5" to="-17364945#1"/>
    <trip id="85" depart="85.00" from="69906441#0" to="130149042"/>
    <trip id="86" depart="86.00" from="101514003#0" to="360549352"/>
    <trip id="87" depart="87.00" from="41241577#1" to="-24998717"/>
    <trip id="88" depart="88.00" from="-130149042" to="-87809368#2"/>
    <trip id="89" depart="89.00" from="-790267021" to="-99590061#1"/>
    <trip id="90" depart="90.00" from="28092385" to="24540469#4"/>
    <trip id="91" depart="91.00" from="91181882#0" to="-13305890#1"/>
    <trip id="92" depart="92.00" from="-65414187#0" to="-49068326"/>
    <trip id="93" depart="93.00" from="49364099" to="-33577247#0"/>
    <trip id="94" depart="94.00" from="-24998607" to="-90239668#0"/>
    <trip id="95" depart="95.00" from="-764086006" to="-363935638"/>
    <trip id="96" depart="96.00" from="-33590840#3" to="616186676"/>
    <trip id="97" depart="97.00" from="-89697992#1" to="49364083#0"/>
    <trip id="98" depart="98.00" from="121153707#1" to="-11645367#0"/>
    <trip id="99" depart="99.00" from="97337520" to="4515841#1"/>
    <trip id="100" depart="100.00" from="87834896#1" to="66087470#10"/>
    <trip id="101" depart="101.00" from="48133023#0" to="-23568018#2"/>
    <trip id="102" depart="102.00" from="102302769#1" to="-27329554"/>
    <trip id="103" depart="103.00" from="-616643919#1" to="-117336112"/>
    <trip id="104" depart="104.00" from="-54948402" to="92162031#0"/>
    <trip id="105" depart="105.00" from="-35393314" to="358200101#1"/>
    <trip id="106" depart="106.00" from="-92162122#0" to="-78057505"/>
    <trip id="107" depart="107.00" from="842131929#0" to="96001122#2"/>
    <trip id="108" depart="108.00" from="121495626#4" to="27616490#0"/>
    <trip id="109" depart="109.00" from="-22817144#1" to="-41241574#1"/>
    <trip id="110" depart="110.00" from="87834886" to="136415313"/>
    <trip id="111" depart="111.00" from="118923813#0" to="32819055#0"/>
    <trip id="112" depart="112.00" from="-117329589#2" to="13860618#6"/>
    <trip id="113" depart="113.00" from="109092331" to="48853062"/>
    <trip id="114" depart="114.00" from="-22945426#1" to="87809310#1"/>
    <trip id="115" depart="115.00" from="-121489892" to="-24652723#3"/>
    <trip id="116" depart="116.00" from="15522127#2" to="24607592"/>
    <trip id="117" depart="117.00" from="-304394549#1" to="-156942165#1"/>
    <trip id="118" depart="118.00" from="53353979#1" to="-33488604"/>
    <trip id="119" depart="119.00" from="15513527" to="180459933#0"/>
    <trip id="120" depart="120.00" from="-74034470#2" to="13860508#0"/>
    <trip id="121" depart="121.00" from="116084183#3" to="69724780#0"/>
    <trip id="122" depart="122.00" from="-26586116#5" to="27454574#1"/>
    <trip id="123" depart="123.00" from="-31553223#0" to="-60849712#1"/>
    <trip id="124" depart="124.00" from="24423782#1" to="-41463562#1"/>
    <trip id="125" depart="125.00" from="-44139877" to="33425977#0"/>
    <trip id="126" depart="126.00" from="-120402878" to="-92478482"/>
    <trip id="127" depart="127.00" from="96904597#0" to="963063661"/>
    <trip id="128" depart="128.00" from="-120403556#2" to="-27159018"/>
    <trip id="129" depart="129.00" from="-35393314" to="690887972#0"/>
    <trip id="130" depart="130.00" from="510840992#1" to="504519863"/>
    <trip id="131" depart="131.00" from="-51815470#2" to="-22963002#0"/>
    <trip id="132" depart="132.00" from="44366150#2" to="26608396#1"/>
    <trip id="133" depart="133.00" from="162607837#0" to="922255652"/>
    <trip id="134" depart="134.00" from="23481330#2" to="-101520667#0"/>
    <trip id="135" depart="135.00" from="41886386" to="-41436657#5"/>
    <trip id="136" depart="136.00" from="23888387" to="70509178#9"/>
    <trip id="137" depart="137.00" from="-177026378#3" to="-15522517"/>
    <trip id="138" depart="138.00" from="-13860680" to="12125276#8"/>
    <trip id="139" depart="139.00" from="-35684012#2" to="158717865#0"/>
    <trip id="140" depart="140.00" from="27562029" to="-26583563#16"/>
    <trip id="141" depart="141.00" from="22416476#4" to="-35393287"/>
    <trip id="142" depart="142.00" from="10267096#1" to="58241783#0"/>
    <trip id="143" depart="143.00" from="4686600" to="-125332642#0"/>
    <trip id="144" depart="144.00" from="-790267021" to="-36098979#0"/>
    <trip id="145" depart="145.00" from="-101507522#2" to="35219462#3"/>
    <trip id="146" depart="146.00" from="22674878#11" to="-35069251#1"/>
    <trip id="147" depart="147.00" from="30667317#1" to="121166134"/>
    <trip id="148" depart="148.00" from="-84523797" to="-101552351#1"/>
    <trip id="149" depart="149.00" from="-120920692" to="51499061#2"/>
    <trip id="150" depart="150.00" from="5666885#4" to="119894108"/>
    <trip id="151" depart="151.00" from="4481791#0" to="137918296#1"/>
    <trip id="152" depart="152.00" from="-22416325#1" to="-162607226#11"/>
    <trip id="153" depart="153.00" from="-42441177#0" to="54951422#1"/>
    <trip id="154" depart="154.00" from="374447541#3" to="49305021#2"/>
    <trip id="155" depart="155.00" from="54951419#1" to="-26992224#3"/>
    <trip id="156" depart="156.00" from="-33590836#1" to="-13635178#2"/>
    <trip id="157" depart="157.00" from="35682714" to="51779243#0"/>
    <trip id="158" depart="158.00" from="-687205022" to="185171125#2"/>
    <trip id="159" depart="159.00" from="-22776220#1" to="686280058#2"/>
    <trip id="160" depart="160.00" from="49572386#0" to="89711343#13"/>
    <trip id="161" depart="161.00" from="41463555" to="511552926#6"/>
    <trip id="162" depart="162.00" from="-10426316#2" to="29586496#4"/>
    <trip id="163" depart="163.00" from="-47836944" to="687214978"/>
    <trip id="164" depart="164.00" from="39505582#1" to="49549648#1"/>
    <trip id="165" depart="165.00" from="41463543" to="-35427735"/>
    <trip id="166" depart="166.00" from="36331761" to="-139314912#4"/>
    <trip id="167" depart="167.00" from="49723606#0" to="49234470"/>
    <trip id="168" depart="168.00" from="-27781345#2" to="41881807#5"/>
    <trip id="169" depart="169.00" from="-939446183#11" to="-41882295#3"/>
    <trip id="170" depart="170.00" from="37337306#1" to="-28599003#3"/>
    <trip id="171" depart="171.00" from="-10306775#2" to="-25537985#2"/>
    <trip id="172" depart="172.00" from="-45767416#3" to="49572356#0"/>
    <trip id="173" depart="173.00" from="87821692" to="-367824823#2"/>
    <trip id="174" depart="174.00" from="22874436" to="-61351099"/>
    <trip id="175" depart="175.00" from="908453716#3" to="118041611#0"/>
    <trip id="176" depart="176.00" from="70509185#0" to="-15522127#2"/>
    <trip id="177" depart="177.00" from="88597422" to="-24325088#1"/>
    <trip id="178" depart="178.00" from="87817185#2" to="-35393320#2"/>
    <trip id="179" depart="179.00" from="-14295058#1" to="-87821552#1"/>
    <trip id="180" depart="180.00" from="280443232#4" to="-43585871#1"/>
    <trip id="181" depart="181.00" from="160119664#1" to="113413387#3"/>
    <trip id="182" depart="182.00" from="-58567253#3" to="136229740#0"/>
    <trip id="183" depart="183.00" from="-33815119#0" to="26991736#3"/>
    <trip id="184" depart="184.00" from="-101343863#1" to="654706052#0"/>
    <trip id="185" depart="185.00" from="118136455" to="27625161#3"/>
    <trip id="186" depart="186.00" from="31002709#1" to="24376313"/>
    <trip id="187" depart="187.00" from="-513705580#0" to="-118979187#1"/>
    <trip id="188" depart="188.00" from="23943354#2" to="-4686567#0"/>
    <trip id="189" depart="189.00" from="-43585888" to="47808573#0"/>
    <trip id="190" depart="190.00" from="27625478#2" to="-41463586#2"/>
    <trip id="191" depart="191.00" from="-42751446#3" to="-690154725#3"/>
    <trip id="192" depart="192.00" from="-65336694#4" to="-410929573#2"/>
    <trip id="193" depart="193.00" from="-162607223#5" to="-75104953#1"/>
    <trip id="194" depart="194.00" from="70948637#0" to="24645310#0"/>
    <trip id="195" depart="195.00" from="55880436#0" to="169502395#2"/>
    <trip id="196" depart="196.00" from="-41467756#3" to="120920675#0"/>
    <trip id="197" depart="197.00" from="-100025451#0" to="-374480936"/>
    <trip id="198" depart="198.00" from="-87199617#1" to="13712614#0"/>
    <trip id="199" depart="199.00" from="23546529#15" to="-96897367#1"/>
    <trip id="200" depart="200.00" from="-89178546#8" to="-27326720"/>
    <trip id="201" depart="201.00" from="101516275#1" to="55358659#1"/>
    <trip id="202" depart="202.00" from="37408225#0" to="-23801184#0"/>
    <trip id="203" depart="203.00" from="-121816395#1" to="115122062#0"/>
    <trip id="204" depart="204.00" from="223440607#0" to="-48427760#0"/>
    <trip id="205" depart="205.00" from="42401129#1" to="33391930#0"/>
    <trip id="206" depart="206.00" from="24539984#1" to="-28002679#5"/>
    <trip id="207" depart="207.00" from="-26172577#2" to="-10425286#1"/>
    <trip id="208" depart="208.00" from="-33391930#1" to="101519033#2"/>
    <trip id="209" depart="209.00" from="481574703#2" to="-120403548#0"/>
    <trip id="210" depart="210.00" from="-70948639" to="218473175#0"/>
    <trip id="211" depart="211.00" from="-25705105" to="26172577#1"/>
    <trip id="212" depart="212.00" from="10426300#3" to="-33130129#7"/>
    <trip id="213" depart="213.00" from="23612522" to="-101516276#2"/>
    <trip id="214" depart="214.00" from="33391731#2" to="35137605#0"/>
    <trip id="215" depart="215.00" from="-13851237#8" to="-813551841"/>
    <trip id="216" depart="216.00" from="-24048832#4" to="846740185#0"/>
    <trip id="217" depart="217.00" from="115654392#0" to="-116164739#0"/>
    <trip id="218" depart="218.00" from="-33577263#2" to="47908116"/>
    <trip id="219" depart="219.00" from="-92320971#1" to="393280364"/>
    <trip id="220" depart="220.00" from="241496945#2" to="92320968"/>
    <trip id="221" depart="221.00" from="15588984#2" to="771295146#0"/>
    <trip id="222" depart="222.00" from="53837193#0" to="162617313#2"/>
    <trip id="223" depart="223.00" from="27625054#0" to="110256863#12"/>
    <trip id="224" depart="224.00" from="44147806#3" to="120824332#2"/>
    <trip id="225" depart="225.00" from="54808032#1" to="313897795"/>
    <trip id="226" depart="226.00" from="101518036#1" to="-34598537#1"/>
    <trip id="227" depart="227.00" from="-33536492#1" to="22690353#0"/>
    <trip id="228" depart="228.00" from="34306685" to="115891810#0"/>
    <trip id="229" depart="229.00" from="21000944#0" to="-35816054#0"/>
    <trip id="230" depart="230.00" from="-121153722#5" to="-37264645#2"/>
    <trip id="231" depart="231.00" from="-35683996#1" to="-44362710#0"/>
    <trip id="232" depart="232.00" from="118915873#0" to="-20139151#0"/>
    <trip id="233" depart="233.00" from="-29561239#6" to="25829095#12"/>
    <trip id="234" depart="234.00" from="26821542#0" to="-118136436#2"/>
    <trip id="235" depart="235.00" from="-68911238#2" to="118925066"/>
    <trip id="236" depart="236.00" from="-724404439#1" to="-26757776#0"/>
    <trip id="237" depart="237.00" from="-74795997#1" to="5712267#7"/>
    <trip id="238" depart="238.00" from="13860618#2" to="26170562"/>
    <trip id="239" depart="239.00" from="49231938#1" to="343050291"/>
    <trip id="240" depart="240.00" from="-55045849" to="-101516438"/>
    <trip id="241" depart="241.00" from="-49714126#1" to="33536490"/>
    <trip id="242" depart="242.00" from="48976742#1" to="79568292#3"/>
    <trip id="243" depart="243.00" from="-74025506" to="32446703#0"/>
    <trip id="244" depart="244.00" from="120403547#0" to="157749837"/>
    <trip id="245" depart="245.00" from="-27663307#1" to="-27645019"/>
    <trip id="246" depart="246.00" from="-87821647#1" to="-10753987"/>
    <trip id="247" depart="247.00" from="-48853033#1" to="246770717#5"/>
    <trip id="248" depart="248.00" from="-671184831#0" to="-23481392"/>
    <trip id="249" depart="249.00" from="100025444#1" to="-162607324#1"/>
    <trip id="250" depart="250.00" from="19785611#4" to="-10594622#3"/>
    <trip id="251" depart="251.00" from="-60608718#19" to="124075064#1"/>
    <trip id="252" depart="252.00" from="-10594629#2" to="22885405#0"/>
    <trip id="253" depart="253.00" from="-185054624#1" to="-9527211"/>
    <trip id="254" depart="254.00" from="-116164757#1" to="-54951422#1"/>
    <trip id="255" depart="255.00" from="-27012113#0" to="-4571205#3"/>
    <trip id="256" depart="256.00" from="338124909#1" to="-54951422#1"/>
    <trip id="257" depart="257.00" from="33434059#5" to="44289586#2"/>
    <trip id="258" depart="258.00" from="-33651099#1" to="-121495096"/>
    <trip id="259" depart="259.00" from="-10243940#3" to="118713806#0"/>
    <trip id="260" depart="260.00" from="99348461" to="-49619049#1"/>
    <trip id="261" depart="261.00" from="23211177#1" to="35684026#0"/>
    <trip id="262" depart="262.00" from="23353684" to="33536500#0"/>
    <trip id="263" depart="263.00" from="76403763" to="-26195582#0"/>
    <trip id="264" depart="264.00" from="-10267158#0" to="-22724495#5"/>
    <trip id="265" depart="265.00" from="-161124506#2" to="24269954#8"/>
    <trip id="266" depart="266.00" from="123937320#3" to="-27625051#0"/>
    <trip id="267" depart="267.00" from="26433296#1" to="34598870#3"/>
    <trip id="268" depart="268.00" from="-23641988#7" to="160689072"/>
    <trip id="269" depart="269.00" from="32534797" to="-154886382#0"/>
    <trip id="270" depart="270.00" from="42401152" to="87821526#1"/>
    <trip id="271" depart="271.00" from="-139314912#4" to="-105073542#1"/>
    <trip id="272" depart="272.00" from="-43086374" to="24645310#1"/>
    <trip id="273" depart="273.00" from="847353098" to="-60849853#3"/>
    <trip id="274" depart="274.00" from="27402786#0" to="-120995504#1"/>
    <trip id="275" depart="275.00" from="25744926#0" to="21137914#1"/>
    <trip id="276" depart="276.00" from="-136300487#5" to="35393310#1"/>
    <trip id="277" depart="277.00" from="48348889" to="156942148#0"/>
    <trip id="278" depart="278.00" from="-157279629#4" to="91181869#1"/>
    <trip id="279" depart="279.00" from="35815243#0" to="-49572347#0"/>
    <trip id="280" depart="280.00" from="-850728402" to="-53203495"/>
    <trip id="281" depart="281.00" from="11085053" to="-49233202#1"/>
    <trip id="282" depart="282.00" from="48133044#0" to="42872451"/>
    <trip id="283" depart="283.00" from="-137918290#2" to="87809310#1"/>
    <trip id="284" depart="284.00" from="22650080" to="44092014#2"/>
    <trip id="285" depart="285.00" from="26821905#6" to="-87821619"/>
    <trip id="286" depart="286.00" from="28871873#3" to="87821604"/>
    <trip id="287" depart="287.00" from="-35560483#3" to="412968060"/>
    <trip id="288" depart="288.00" from="118136449" to="102155896#2"/>
    <trip id="289" depart="289.00" from="-87821624#1" to="28398178#0"/>
    <trip id="290" depart="290.00" from="-35471219#3" to="48630977"/>
    <trip id="291" depart="291.00" from="44147811#3" to="-122149536"/>
    <trip id="292" depart="292.00" from="511552930#4" to="-33059817#2"/>
    <trip id="293" depart="293.00" from="-96573754" to="161919649#0"/>
    <trip id="294" depart="294.00" from="-54951415#0" to="-10753286#1"/>
    <trip id="295" depart="295.00" from="48427753#0" to="-245796095"/>
    <trip id="296" depart="296.00" from="-27046400#1" to="37935361#11"/>
    <trip id="297" depart="297.00" from="-49231939#0" to="51008445"/>
    <trip id="298" depart="298.00" from="26551096" to="-36098971#1"/>
    <trip id="299" depart="299.00" from="-10159855#1" to="75046267#1"/>
    <trip id="300" depart="300.00" from="-122147357" to="27639347"/>
    <trip id="301" depart="301.00" from="10267096#3" to="33651080#0"/>
    <trip id="302" depart="302.00" from="25744926#0" to="23029167#2"/>
    <trip id="303" depart="303.00" from="10298183#2" to="37073993"/>
    <trip id="304" depart="304.00" from="-126066861#0" to="-27740930"/>
    <trip id="305" depart="305.00" from="25789608#1" to="-423218419"/>
    <trip id="306" depart="306.00" from="137611770#0" to="101516276#2"/>
    <trip id="307" depart="307.00" from="117329612#1" to="-8180073#7"/>
    <trip id="308" depart="308.00" from="32209826#3" to="-47267579#4"/>
    <trip id="309" depart="309.00" from="26586104#0" to="-35572710"/>
    <trip id="310" depart="310.00" from="-33651074" to="-157013753"/>
    <trip id="311" depart="311.00" from="-25384874#3" to="-156890744#0"/>
    <trip id="312" depart="312.00" from="118041597" to="33995422"/>
    <trip id="313" depart="313.00" from="-24648066#1" to="-27470764#0"/>
    <trip id="314" depart="314.00" from="102156982" to="27741408#2"/>
    <trip id="315" depart="315.00" from="89711362" to="116937340#0"/>
    <trip id="316" depart="316.00" from="-36951144#2" to="-135648751#3"/>
    <trip id="317" depart="317.00" from="-25691315#2" to="-28542708#3"/>
    <trip id="318" depart="318.00" from="-24416776#1" to="-102150613#1"/>
    <trip id="319" depart="319.00" from="117689594#1" to="-35816046"/>
    <trip id="320" depart="320.00" from="89698002#0" to="121485869"/>
    <trip id="321" depart="321.00" from="26369788#0" to="-161124508#2"/>
    <trip id="322" depart="322.00" from="49709178#0" to="10304608#0"/>
    <trip id="323" depart="323.00" from="49723618#2" to="133208005"/>
    <trip id="324" depart="324.00" from="101504465#0" to="-891748817"/>
    <trip id="325" depart="325.00" from="-24645303#0" to="-116907966#1"/>
    <trip id="326" depart="326.00" from="70948995#0" to="10158749#8"/>
    <trip id="327" depart="327.00" from="42802024#0" to="-616186673"/>
    <trip id="328" depart="328.00" from="-120824308#1" to="21555344"/>
    <trip id="329" depart="329.00" from="-117118442" to="-225750903#1"/>
    <trip id="330" depart="330.00" from="123699323#0" to="-41872957#0"/>
    <trip id="331" depart="331.00" from="9527211" to="-156689051#10"/>
    <trip id="332" depart="332.00" from="34261825#2" to="160119667#0"/>
    <trip id="333" depart="333.00" from="36908822#0" to="-281584358"/>
    <trip id="334" depart="334.00" from="116084179#0" to="-91154658#1"/>
    <trip id="335" depart="335.00" from="-89697975#1" to="49304094#1"/>
    <trip id="336" depart="336.00" from="92478487#14" to="-421072614#2"/>
    <trip id="337" depart="337.00" from="185171136" to="161124508#0"/>
    <trip id="338" depart="338.00" from="304394542" to="745534436"/>
    <trip id="339" depart="339.00" from="-26821898" to="-26992634#4"/>
    <trip id="340" depart="340.00" from="23858864#0" to="-22943519#0"/>
    <trip id="341" depart="341.00" from="-23950112" to="-120920687"/>
    <trip id="342" depart="342.00" from="-101507119#2" to="-91154658#1"/>
    <trip id="343" depart="343.00" from="154879583#0" to="-39467491#0"/>
    <trip id="344" depart="344.00" from="-29568003" to="26821897#0"/>
    <trip id="345" depart="345.00" from="26586121#0" to="-92162028#1"/>
    <trip id="346" depart="346.00" from="25537916" to="622540606#0"/>
    <trip id="347" depart="347.00" from="365329910" to="20886419#0"/>
    <trip id="348" depart="348.00" from="23865910#5" to="691529209#0"/>
    <trip id="349" depart="349.00" from="-813551838" to="119331343#6"/>
    <trip id="350" depart="350.00" from="23036496#0" to="59148645#7"/>
    <trip id="351" depart="351.00" from="43585897" to="-119335708#3"/>
    <trip id="352" depart="352.00" from="-23556099" to="-42401150#0"/>
    <trip id="353" depart="353.00" from="32877738#0" to="129747976#0"/>
    <trip id="354" depart="354.00" from="-37976449#2" to="-160526739#1"/>
    <trip id="355" depart="355.00" from="25670812#3" to="26471832#2"/>
    <trip id="356" depart="356.00" from="73008337" to="10805092#1"/>
    <trip id="357" depart="357.00" from="10417844#1" to="-121490751"/>
    <trip id="358" depart="358.00" from="-11355113#1" to="-87817185#0"/>
    <trip id="359" depart="359.00" from="-449697913" to="-33590861"/>
    <trip id="360" depart="360.00" from="-124075454" to="87811192"/>
    <trip id="361" depart="361.00" from="450261526" to="13482432#0"/>
    <trip id="362" depart="362.00" from="779052203#1" to="97731069"/>
    <trip id="363" depart="363.00" from="24519016#0" to="-355458930#4"/>
    <trip id="364" depart="364.00" from="-11489488#4" to="33590840#2"/>
    <trip id="365" depart="365.00" from="101507132" to="23351965#0"/>
    <trip id="366" depart="366.00" from="60608718#0" to="-24540749"/>
    <trip id="367" depart="367.00" from="139314874#5" to="225561228#0"/>
    <trip id="368" depart="368.00" from="10305464#0" to="-124075182#5"/>
    <trip id="369" depart="369.00" from="-49581899#10" to="-48133039#1"/>
    <trip id="370" depart="370.00" from="24325171#0" to="49233203#1"/>
    <trip id="371" depart="371.00" from="-4686511#12" to="25816246#1"/>
    <trip id="372" depart="372.00" from="-37935366" to="74025360#2"/>
    <trip id="373" depart="373.00" from="41494185#6" to="121153701"/>
    <trip id="374" depart="374.00" from="-92162097" to="-43905364#0"/>
    <trip id="375" depart="375.00" from="-45324444#0" to="884832564"/>
    <trip id="376" depart="376.00" from="-663676977" to="114970845"/>
    <trip id="377" depart="377.00" from="92320994#0" to="23670255#0"/>
    <trip id="378" depart="378.00" from="118925066" to="-70509874"/>
    <trip id="379" depart="379.00" from="-24824079#0" to="-51008380#0"/>
    <trip id="380" depart="380.00" from="33590844" to="20886477#1"/>
    <trip id="381" depart="381.00" from="33711510#0" to="-26583563#15"/>
    <trip id="382" depart="382.00" from="12096024#2" to="673626882"/>
    <trip id="383" depart="383.00" from="-87834877#0" to="26415765#0"/>
    <trip id="384" depart="384.00" from="-157375398#1" to="89178546#8"/>
    <trip id="385" depart="385.00" from="161124481#0" to="-31553551#8"/>
    <trip id="386" depart="386.00" from="-22987205#11" to="121153722#0"/>
    <trip id="387" depart="387.00" from="121166162" to="-126851320#1"/>
    <trip id="388" depart="388.00" from="939446183#10" to="60187251#2"/>
    <trip id="389" depart="389.00" from="-9473487#5" to="-156345341#2"/>
    <trip id="390" depart="390.00" from="44289592" to="10639389#17"/>
    <trip id="391" depart="391.00" from="27470764#2" to="112075998#1"/>
    <trip id="392" depart="392.00" from="-35772128#3" to="4481900#8"/>
    <trip id="393" depart="393.00" from="90446821#1" to="-32877929#5"/>
    <trip id="394" depart="394.00" from="121166127#1" to="-5712267#10"/>
    <trip id="395" depart="395.00" from="61351071#1" to="111683598"/>
    <trip id="396" depart="396.00" from="504519864#0" to="49549648#0"/>
    <trip id="397" depart="397.00" from="-36098971#0" to="36848129"/>
    <trip id="398" depart="398.00" from="-70948809" to="694968238"/>
    <trip id="399" depart="399.00" from="111682642#1" to="426111898"/>
    <trip id="400" depart="400.00" from="-36933603#0" to="-413353433#1"/>
    <trip id="401" depart="401.00" from="14298372#0" to="97051127#3"/>
    <trip id="402" depart="402.00" from="102681886#0" to="-22416476#3"/>
    <trip id="403" depart="403.00" from="118136459#0" to="-49364105"/>
    <trip id="404" depart="404.00" from="121166142#3" to="118979190"/>
    <trip id="405" depart="405.00" from="-92162133#0" to="-44887693#1"/>
    <trip id="406" depart="406.00" from="-24931720" to="26415154#1"/>
    <trip id="407" depart="407.00" from="131628654" to="-30385047#2"/>
    <trip id="408" depart="408.00" from="35467973" to="-115258461#1"/>
    <trip id="409" depart="409.00" from="31553551#0" to="26734374#1"/>
    <trip id="410" depart="410.00" from="41464786#2" to="-58744059"/>
    <trip id="411" depart="411.00" from="23902803#4" to="42676283"/>
    <trip id="412" depart="412.00" from="90446867#0" to="105073544"/>
    <trip id="413" depart="413.00" from="-111682654#2" to="109092306"/>
    <trip id="414" depart="414.00" from="14888270#2" to="49714159#5"/>
    <trip id="415" depart="415.00" from="49728587#0" to="-890909597"/>
    <trip id="416" depart="416.00" from="117106730#4" to="-92321014#1"/>