<?xml version="1.0" encoding="UTF-8"?>

<!-- generated on 2021-08-17 10:14:47 by Eclipse SUMO duarouter Version 1.9.2
<configuration xmlns:xsi="http://www.w3.org/2001/XMLSchema-instance" xsi:noNamespaceSchemaLocation="http://sumo.dlr.de/xsd/duarouterConfiguration.xsd">

    <input>
        <net-file value="osm.net.xml"/>
        <route-files value="traffic_trips.xml"/>
    </input>

    <output>
        <output-file value="traffic_routes.xml"/>
        <alternatives-output value="traffic_routes.alt.xml"/>
    </output>

    <time>
        <begin value="0"/>
        <end value="3600"/>
    </time>

    <report>
        <no-warnings value="true"/>
        <ignore-errors value="true"/>
        <no-step-log value="true"/>
    </report>

</configuration>
-->

<routes xmlns:xsi="http://www.w3.org/2001/XMLSchema-instance" xsi:noNamespaceSchemaLocation="http://sumo.dlr.de/xsd/routes_file.xsd">
    <vehicle id="0" depart="0.00">
        <route edges="22731876#0 -22689753 22689751#2 4520762#7 4520762#9 363743698 136229570#0 136229570#2 136229571 835871365 4481903#0 14360987#0 836332232#0 37408227#0 30416941 30417784#0 839599272 39244314#0 -245506151#4 -245506151#1 -30416781 30417388 59148642#0 11085915#0 11085908#0 137491588#0 4639820 110256863#0 110256863#5 110256863#7 110256863#8 110256863#12 137611781 137611777#0 137611777#5 137611777#9 137611777#11 137611777#13 12102913#0 352393621#0 352393621#6 16355922#0 10159349#0 10426689#1 -10426689#2"/>
    </vehicle>
    <vehicle id="1" depart="1.00">
        <route edges="-35816065#1 -35816065#0 35684012#4 35684012#6 -35560623#2 -35560623#1 -35560623#0 -18410101 -218486684#2 -218486684#1 441125026 11261593#4 11261593#5 11261593#7 12476047#0 515896383 776740125#1 12477333#0 12476257#7 12476257#0 12476257#1 12476257#2 12476257#3 14461162 37935361#0 27919863#0 -27919866#1 -27919866#0"/>
    </vehicle>
    <vehicle id="2" depart="2.00">
        <route edges="29586475#4 -5528272#2 -119558332#5 -119558332#3 -686280066#1 5528270#0 157600007#2 -42403510#1 -25672319 -27326720 -27326719 -107916294 678514428 678514429 678514435 683612548 678514432 -139240249 678514438#0 678514438#1 4542903#0 43696212 157397600 4542902 156508926 4597300 23612350 -782602948#1 -129215680#0 -129215679#1 -41437263#4 -41437263#3 -41437263#2 -41495391 -41436665#5 -41495387#4 -41495387#1 -41436664#2 -41436667 23612562#0 23612562#4 23612562#12 26433296#0 26433296#1 24465941#0 24465941#1 24465941#3 41474516 96570796#0 96570796#1 296677378 170091747 41474762#0 296677379#1 10305177#0 10305177#1 745421451 296677411#0 296677411#1 15242077 138628392#0 745421448 15242111#0 60187233 60187191 48981682 138628394 7817459#0 7817459#1 7817459#2 40712929 -44362720 -96536483#1 121746702 -121574543#5 -121574543#2 -121574543#0 -44362721#4 -44362721#2 -44362721#1 -44362721#0 24645221#0 24645221#1 24645221#2"/>
    </vehicle>
    <vehicle id="3" depart="3.00">
        <route edges="54680442#1 24998662#0 24998662#1 24998662#3 -55358659#6 -55358659#5 -55358659#2 -55358659#1 -55358659#0 -54680915#4 -54680915#3 -54680915#0 15514899#8 54682144 -878979358#1 -54844459 23862560 23862559#4 23862559#6 23862559#0 24381985#0 24381985#1 24381985#2 24381985#3 24381985#4 24381985#5 24381985#6 60187246 37616606#0 76403797#0 76403797#1 76403797#2 37616705 -30044133 -28671696 -28671685 205091775 70509118#3 70509118#4 70509118#5 205091772 -28658690#1 26337170#0 -136299645#2 -89711349#2 -89711349#1 -89711349#0 -136299638 -89711382#3 -89711382#2 -89711382#0 -89711392 -89711431#2 -89711431#1 -89711343#16 -89711343#13 -89711343#12 -89711343#8 -89711343#5 -89711343#3 -89711378 -89711407#2 -89711407#1 -89711428#2 70509159#0 70509159#2 70509159#3 -89744766#2 89711403 89744757#0 89744757#1 89744757#3 89711370#1 28003960#5 28003960#6 28003960#1 65277390#0 65277390#1 65277390#2 -122258378 122258377#0 -122258377#0"/>
    </vehicle>
    <vehicle id="4" depart="4.00">
        <route edges="-765965212 -765965213#0 691529209#2 691529209#4 49549644 476630799 35137605#0 35137605#2 35137605#3 27429202#0 87199610#1 49549653 690892046#1 690892046#2 690892046#3 35137606 87199617#1 87199617#2 45423941#0 45423941#2 45423941#4 49549641#0 49549641#4 35137603 139314913#0 355835752#2 476631391#0 476631391#2 48229088 35137604#0 157378833 161919648#0 157378831#0 48229057#0 136990099#0 136990099#2 41438042#0 41438042#1 136181107#0 136181107#1 231354881 49366890 161919649#2 161131232#0 161131232#1 2954655 2954655-AddedOffRampEdge 28288945#1 135850040#1-AddedOnRampEdge 135850040#1 135850040#1-AddedOffRampEdge 4542905 136180732 156508927#0 156508927#1 156508927#2 156508927#3 25674464#1 25674464#2 25674464#3 4542909#0 474514216#1 26745406 139239933 156508926 4597300 23612350 -782602948#1 -129215680#0 -129215679#1 -41437263#4 -41437263#3 -41437263#2 -41495391 -41436665#5 96904610#0 -41467054 10231352#0 10231352#4 509722712#0 175877888#0 175877888#1 -175877890 -136230790 -125332642#3 -125332642#0 -29047130 -136230794#2 -136230794#0 -125492782#1 -136230797 -41464801#2 -136230788#1 -41882293#1 -96897384 -123699310#6 123433440 -96897361 -96897385#1 -96897376#7 -96897376#5 -96897376#4 -96897376#3 -96897376#1 -123433442#0 -835458078 10683955 123570686#0 10805330#0 -10805330#1"/>
    </vehicle>
    <vehicle id="5" depart="5.00">
        <route edges="-27625480#0 27625479#2 27625479#3 -27625478#3 -27625478#2 -27625478#1 -27625478#0 -42798149#1 -27562029 5528272#0 29586496#0 29586496#1 29586496#2 29586496#4 41830178#0 41830178#1 27326715 27326716#0 27326716#2 27622043#0 27622043#1 5354262 306980458 36100303#0 48587081#0 20143421 20142892#0 20142892#2 20142892#4 20142892#5 220245526#0 59434326#0 36100304#0 -97337523 59434324#0 42975798#0 169502395#1 169502395#2 169502395#6 21002703#2 21002703#5 21002703#6 21002934 21002939#0 21002939#1 374447541#1 11064750#0"/>
    </vehicle>
    <vehicle id="6" depart="6.00">
        <route edges="-10594618#3 -10594618#2 -10594618#0 -194817311 -176169882#2 -41474758#1 24652172#0 24652172#1 41474838#0 41474838#1 27730601 41474831#0 41474831#2 24652169#0 27730612 176488080#1 170222305#2 -49023024#2 -49023024#0 -60849715 -185171126#4 -185171126#2 -185171126#0 -10594629#2 -10594629#0 10594626#5 10594626#6 10594626#1 10594627 25745430#0 25745430#2 745421456#0 745421455 10305140#0 923198003 10639386#0 923197999 26170703#2 -26170703#2"/>
    </vehicle>
    <vehicle id="7" depart="7.00">
        <route edges="23180848 -23180848 -23180847#0 -21554059#1 9527811 157854144 54034460#0 54034460#1 21553987 96570754 132683879#0 132683879#2 132683879#4 132683879#5 132683879#6 23612737#0 23612737#1 785839418 129415377#0 41474514#0 41474514#1 41474514#5 41474514#6 296677389#1 957423070 26433301#0 26433301#4 48976741#0 48976741#1 48976741#2 48976741#4 48976741#5 41474760#1 41474760#3 41474760#5 41881807#0 41881807#1 41881807#2 41881807#4 41881807#5 41881807#6 41881807#7 41474758#0 41474758#2 26433305 10594618#0 10594618#1 10594618#3 10594618#4 10594618#5 10594618#6 170222309#1 170222311#0 41475681 41494413 194817305 41475682 10594611#8 10594611#1 10594611#2 10594615 2954656#1-AddedOnRampEdge 2954656#1 2954656#1-AddedOffRampEdge 135849818#1 23640046#0-AddedOnRampEdge 23640046#0 23640046#0-AddedOffRampEdge 28092385 26625885#1-AddedOnRampEdge 26625885#1 230991090 678522745 678522746#0 161919649#0 49366887 -231354881 -136181107#1 -136181107#0 -284982274 -41438042#0 -136990099#2 -136990099#0 -48229057#3 -157378831#1 -161919648#1 45419861#0 45419861#1 -49305020#6 -49305020#5 -49305020#1 -119353195#2 -119353193#1 119353193#0"/>
    </vehicle>
    <vehicle id="8" depart="8.00">
        <route edges="-27663227#1 27625056#0 27625056#3 27663215#14 27663217#0 27663217#6 14461464#8"/>
    </vehicle>
    <vehicle id="9" depart="9.00">
        <route edges="413938758#2 -95278946#0 24829610#1 24829610#2 24829610#3 -156339990 698946826 27484043#5 27484043#6 27484043#7 698946829#0 -136180230 699447455 5667927#0 5666885#6 5666885#7 5666885#8 413937210 -136180155 10417844#1 10417844#2 10417844#3 -410052474 -117672382#10 -117672382#3 -117672382#1 -117672382#0 -117672369#1 -49723616 -161124481#3 -161124481#1 390257195#0 -101517429"/>
    </vehicle>
    <vehicle id="10" depart="10.00">
        <route edges="40933973#1 -40933973#1 -40933973#0 28628933#6 12313915 44140514#1 23337467#0 24713339#0 -10306099#8 -10306099#7 -10306099#4 11685840 10306651#0 10306651#1 10306651#2 43989965#0 -10306731#2 -10306731#0 -43989971#10 -43989971#8 -43989971#7 -43989971#1 -10754572#2 -10754572#0 10754466#0 10754466#1 -11086192#3 -137491588#0 -11085908#3 11085983#0 -23769796 -30417388 30416781 245506151#0 245506151#2 839599266 39244315#0 39244315#1 30417141#0 463440812#0 4479884#0 4479884#2 5666759 41886388 12504328 737655480#0 27332885#0 -123699328 123699327 5666762#0 5666762#2 5666762#3 5666762#5 5666762#6 5666762#8 740982178 889996859 740982175 831851221#0 10260148 831851222#0 22821920 835377826 162799385 23035872#0 23035876#0 831851224#0 936407793#0 936407779#0 936407787#0 5364660#0 5364660#1 5364660#3 139240814 54034460#0 54034460#1 21553987 96570754 132683879#0 132683879#2 132683879#4 132683879#5 132683879#6 23612737#0 23612737#1 785839418 129415377#0 -24269954#14 -24269954#13 -26415740#3 26415740#3"/>
    </vehicle>
    <vehicle id="11" depart="11.00">
        <route edges="-49231937 49023020#6 -49023021#2 -49023021#1 -49023021#0 37337306#0 37337306#1 37337306#2 37337306#3 41881463#0 41881463#1 10267549 49628809#0 49628809#1 49628809#2 49628809#4 49628809#5 22724524#0 22724524#1 22724524#2 22724524#3 22724524#4 -24652165 -24652167#1 -170222305#2 -170222305#1 -176488080#0 -24652169#1 -41474831#2 -41474831#1 -27730601 -41474838#3 -41474838#0 -24652172#1 -24652172#0 -41881807#7 -41881807#6 -41881807#5 -41881807#4 -41881807#2 -41881807#1 -41881807#0 -41474760#5 -41474760#4 -41474760#1 -48976741#5 -48976741#4 -48976741#3 -48976741#1 -48976741#0 -26433301#4 -26433301#3 -957423070 -296677390 -296677389#0 -41474514#5 -41474514#4 -41474514#0 -129415377#2 -96570818 -23612737#3 -23612737#0 -132683879#6 -132683879#5 -132683879#4 -132683879#2 -132683879#1 -5712262 23116925 23172855#0 23172855#1 23116973#0 23116973#3 23108087 131823446 23354063#1 121802804#1 23354038 23369532#0 23369532#1 23583312#0 23581195#1 -23353631 22883463 -22883401#2"/>
    </vehicle>
    <vehicle id="12" depart="12.00">
        <route edges="839623120 59148640#3 59148640#5 59148640#7 4550178#3 -839623117#4 -4481900#7 -4481900#4 -4481900#3 -4481900#0 -871842219#2 -136229740#2 136229740#0 37408226 123082547 22945377#0 22945377#3 28760965#0 28760965#1 28760965#2 44147798#0 44147798#13 -22945334#8 4686563#0 44147815 28760978#0 44147801#0 44147801#6 28760981#0 30952120#0 123518666#1 27947412#0 27947412#3 28871873#4 -41463555 -26584531#0 41463557#0 41463557#4 44366150#0 44366150#2 48905469 44366154 26584621 59652360#0 48427748#0 48427748#3 48427748#4 48427748#5 -48853062"/>
    </vehicle>
    <vehicle id="13" depart="13.00">
        <route edges="-125813056 -45379091#0 47267191#0 47267191#2 -41467057#1 -41467057#0 -125812399 161921017 410929561#0 410929562 354423720 678514439#0 -26254808#6 -122959024#1 -122959024#0 -125492788#1 41882296#1 35471245 25789608#0 25789608#1 25789610 -35471243 124317773#0 -136230788#1 -41882293#1 -96897384 -123699310#6 123433440 -4543272 -123518668 -123518669#1 -44147804#2 -44147804#1 -44147804#0 -4686516#1 -4686516#0 -22945334#8 -44147799#10 -44147799#7 -44147799#2 -44147799#0 -23888378#5 -23888375#5 -59434335 -19785545 -4686512 -59434329#7 -59434329#5 -59434329#2 54951422#0 54951422#1 130148132 -130148132"/>
    </vehicle>
    <vehicle id="14" depart="14.00">
        <route edges="47573310#0 413412764 30195828#0 47584688#0 -30195769#0 510525463#0 11261264#4 11261169 27640350#0 27640350#1 157400456-AddedOnRampEdge 157400456 30128075 957264351#0 32534797 157400455#1 4541817 32352779-AddedOnRampEdge 32352779 808935234 844804868#0 389449567#0 121613328#1 957264355 60419921 846740191#0 363743696 808935235 158827836 28998687#0 60419920#0 60419920#1 846740177#0 15215845#0 136614330 957264366 7817455 837596443 837596433 22733438#0 137611786 837617207 23613256#0 745534443#0 745534442 745534444 88759905#0 88759905#4 88759905#5 88759905#7 88759905#10 165839534#0 44139264#0 123570691 -41432517#2 839599271 39244314#0 -245506151#4 -245506151#1 -30416781 30417388 59148642#0 11085915#0 11085908#0 137491588#0 11086192#0 10754555#0 10754555#1 10754572#0 10754572#1 43989971#0 43989971#2 43989971#8 43989971#9 43989971#11 43989966#0 -30417443#8 -30417443#4 -30417443#3 -30417443#1 -30417443#0 -10306081#2 -10306081#1 10306099#0 10306099#5 10306099#8 -24713339#1 -23337467#1 -44140514#1 -12313915 -28628933#6 -28628933#5 -28628933#3 -28628933#2 -28628933#1 -28628933#0 -28628934 -11648862#3 15804639#0"/>
    </vehicle>
    <vehicle id="15" depart="15.00">
        <route edges="41241561 -41241561 -41241559#0 -41241577#0 -37074022#0 41830176#1 41830176#4 41830176#8 41830176#10 41830176#11 41830176#12 -34262109#5 -34262109#3 -34262109#2 -306980460 27326715 27326716#0 27326716#2 -639064268 -162618989#5 -162618989#4 -162618989#1 -162618989#0 -162480878#1 4542898#0 4542898#1 -26584600#3 -26584600#1 165830328 186645120#1 -410929572#5 -410929572#3 -410929572#1 -48427757#1 -48427757#0 -48427881 -59652360#2 -59652360#1 -59652360#0 -26584621 -44366154 -48905469 -44366150#3 -44366150#1 -41463557#4 -41463557#3 26584531#0 41463555 -28871873#5 -27947412#3 -27947412#2 -123518666#1 -123518666#0 -28760981#2 -44147801#8 -44147801#5 -28760978#4 -44147815 -4686563#2 22945334#0 4686516#0 4686516#1 28198615#0 28198615#2"/>
    </vehicle>
    <vehicle id="16" depart="16.00">
        <route edges="118136408 118136420#1 118136420#2 49549648#6 119335709#0 119335709#2 690887972#0 690887972#3 118136431#0 118136431#1 118136431#2 118136460#0 26528024#0 26528024#1 26528024#2 118713800#0 118713800#3 118713807 118713806#0 118713806#6 367823344#0 367823344#1 117218504#0 117218504#1 157378462#0 357838000#0 26528026 -357837999 -412990040#1 -117335556 -157748643#2 -157748643#0 27886401 136180403 135850040#1-AddedOnRampEdge 135850040#1 135850040#1-AddedOffRampEdge 23640045 26430168#1-AddedOnRampEdge 26430168#1 26430168#1-AddedOffRampEdge 135849816#1 2954692#1-AddedOnRampEdge 2954692#1 8162885 4597219#0 43962594 22674878#0 22674878#1 22674878#2 22674878#3 22674878#4 22674878#5 22674878#8 22674878#11 23641988#0 23641988#1 23641988#2 23641988#5 23641988#6 23641988#8 23887448 23887447#2 23887447#3 23887447#5 23887447#6 23887447#8 23641989 23641991 308891943#0 438595563#0 65331896#2 60187251#0 89178546#0 89178546#1 89178546#2 89178546#3 89178546#4 89178546#5 89178546#6 89178546#7"/>
    </vehicle>
    <vehicle id="17" depart="17.00">
        <route edges="-54851948#0 54851948#0 54851948#1 -54851948#1 -25382291 -23862563#2 42751406 15514899#5 15514899#7 15514899#8 54682144 -878979358#1 -54844459 23862560 23862559#4 23862561 23862561-AddedOffRampEdge 27329552#1 27329552#2-AddedOnRampEdge 27329552#2 23036352#6 23036352#8 23036352#0 23036349 515885061 23036348#2 70509116 70509148#0 70509148#1 70509148#5 100117904#0 136415325#0 411029111#0 411029111#3 136300506#0 136300506#2 136300506#3 934271210 934271212#0 934271212#1 934271212#3 934271212#4 60419932 60419941 70509176 122147359 122147357 122147385#0 382318956#1 58744053 122147364 58744054 26745251 31013632 58744061 27638217 27886075 745196504 200904070 745196501#0 745196501#1 745196501#2 23036337 745196507-AddedOnRampEdge 745196507 135849151#1 22416555-AddedOnRampEdge 22416555 22416555-AddedOffRampEdge 10594616 10594611#6 25703313 -194817305 -41494413 -194817304 -170222311#1 -170222309#2 -170222309#0 -10594618#5 -10594618#4 -10594618#3 -10594618#2 -10594618#0 -194817311 -176169882#2 -41474758#1 -27012163#8 -41436531#2 -41436531#1 -60420200#1 -60420200#0 -41436661#5 -41436661#4 -41436661#3 -41436661#2 -41436661#0 -24645065#14 121166127#0 121166127#1 121166184 -121166147#0 121166147#0"/>
    </vehicle>
    <vehicle id="18" depart="18.00">
        <route edges="44139881#7 -44139881#8 -44139881#6 -44139881#4 -25151294#1 -43989966#6 -43989971#12 -43989971#10 -43989971#8 -43989971#7 -43989971#1 -10754572#2 -10754572#0 10754466#0 10754466#1 -11086192#3 -137491588#0 -11085908#3 11085983#0 -23769796 -30417388 30416781 245506151#0 245506151#2 839599265 43989974#1 839595730 836332235#0 37408225#0 -4481903#1 -835871356 -136229571 -835871362 -136229570#1 -363743698 4481902 835458074#0 -136229641#2 -201105323#5 -201105323#2 -4520757#2 41883007#0 201105327#2 4543272 123518664#1 96897356 96897384 41882293#1 136230788#0 41464801#0 136230797 125492780#0 136230794#0 136230794#1 23612657 125332642#0 125332642#2 136230790 175877890 175877883#1 509722710 -10231352#5 -10231352#3 41467054 41467055 41436665#0 41495391 41437263#0 41437263#3 41437263#4 41437263#5 41436660 129215680#1 41467051#0 41467051#1-AddedOnRampEdge 41467051#1 27616478 139240133 156508948 157397603 157397600 4597301#0 26745400#0 26745400#2 136180853#0 156508941#0 156508941#1 156508941#2 4542906 23640046#0-AddedOnRampEdge 23640046#0 23640046#0-AddedOffRampEdge 5667943 135442840 347078198#0 510521934 510521935 367822297#0 157748643#0 157748643#1 117335556 412990040#0 26528025 -357838000#2 -157378462#1 -117218504#2 -117218504#0 -367823344#1 -367823344#0 -118713806#6 -118713806#5 -118713807 -118713800#4 -118713800#2 -26528024#3 -26528024#1 -26528024#0 -118136460#0 -118136431#2 -118136431#1 -118136431#0 -690887972#3 -690887972#2 -119335709#2 -119335709#1 -49549648#6 -49549648#5 -49549648#4 -49549648#3 -49549648#0 176043837#0"/>
    </vehicle>
    <vehicle id="19" depart="19.00">
        <route edges="49364101 121818944#6 -41495390#1 -41495390#0 -10298183#4 -10298183#3 -10298183#1 41467055 23612196 41436654#1 41436654#2 60420200#0 60420200#1 41436531#0 41436531#2 27012163#0 41474758#0 41474758#2 26433305 10594618#0 10594618#1 10594618#3 10594618#4 10594618#5 10594618#6 170222309#1 170222311#0 41475681 41494413 194817305 41475682 10594611#8 10594611#1 10594611#2 10594611#3 10594612 25674467#1 25674467#2 25674467#3 10594617 2954692#1-AddedOnRampEdge 2954692#1 745421461 135849335#1-AddedOnRampEdge 135849335#1 135849335#1-AddedOffRampEdge 25788923 27638223 160126309 745196505 22885288 -382318953#1 -58744054 58744055 900462038 60187228 -382318956#3 -382318956#0 -122147357 -122147359 -70509176 -70509161 -60419932 -934271212#5 -934271212#3 -934271212#1 -934271212#0 -934271210 -136300506#4 -136300506#2 -136300506#0 -411029111#4 -411029111#1 -136415325#1 -100117904#1 -819041191 -70509148#4 -70509148#0 22338366 23036348#6 22338367 70509178#0 70509178#2 70509178#5 70509178#9 89711376#0 -317737012#3 205091774#1 70509118#5 205091772 -28658690#1 26337170#0 -136299645#2 -136299647#8 136299647#8"/>
    </vehicle>
    <vehicle id="20" depart="20.00">
        <route edges="26700946#2 26700947#0 26700947#3 26700947#5 -26700951#1 51779255#0 162590431 162590432#0 162590432#1 25814189#0 25814191#0 25814191#3 49709131 156976888 27639347 157382220 27639352 27639354 442046611 156890738 161124497 161124504 161124482 25699875 156890744#0 156890744#1 156890744#3 160916168 354418506#1 354418506#2 49723611#0 49723611#2 49723611#3 49723611#7 49723611#8 -115954070#4 -115954070#2 -115954070#1 -115954071#3 -115954071#2 -115954071#1 -115954071#0 -49723612 -156335680 -156335676 -49723641#1 -79141669#4 -79141669#3 -79141669#1 -117329596#1 -117329596#0 -412990020#1 -23501948#1 -5667933#2 -118713803#3 -118713803#0 -138947708 -138947707 -118136460#5 -118136460#3 -118136460#2 -118136460#1 -118136460#0 -118136431#2 -118136431#1 -118136431#0 -690887972#3 -690887972#2 -119335709#2 -119335709#1 -49549648#6 -49549648#5 -49549648#4 -49549648#3 -49549648#0 176043837#0 176043837#3 118136409#0 115848939#0 115848939#2 115848939#6 115848939#7 115848939#8 115848943#0 -115848943#0"/>
    </vehicle>
    <vehicle id="21" depart="21.00">
        <route edges="-28628933#2 28628933#2 28628933#3 28628933#4 28628933#6 12313915 44140514#1 23337467#0 24713339#0 -10306099#8 -10306099#7 -10306099#4 11685840 10306651#0 10306651#1 10306651#2 43989965#0 -10306731#2 -10306731#0 -43989971#10 -43989971#8 -43989971#7 -43989971#1 -10754572#2 -10754572#0 10754466#0 10754466#1 -11086192#3 -137491588#0 -11085908#3 11085983#0 -23769796 -30417388 30416781 245506151#0 245506151#2 839599266 39244315#0 39244315#1 30417141#0 463440812#0 4479884#0 4479884#2 44139261#0 41886386 4541816#0 101453751#0 101453751#1 101453751#2 41432520 745358395#0 745358395#1 93671301#0 52856856#1 41886247#2 88757409#2 745534429 26433267#0 26433267#0-AddedOffRampEdge 26433273#0 745534453 837617208 837617210 22733437 837617204 165842350#0 837596447 11260545 11356367#2 27640293 846740179 158827830#0 60419922#0 60419922#1 808935232#0 846740190#0 363743700#0 363743700#2 363743700#3 363743700#4 32354196 32354188#0 60419918 32352792-AddedOnRampEdge 32352792 844804861 389449566 808935233#0 808935233#0-AddedOffRampEdge 808935233#2 15824228#0 15824228#1 15824228#2 15824228#3 4541818#0 352404463 352404463-AddedOffRampEdge 157400447 957264347 957264345 15407180#0 15407180#0-AddedOffRampEdge 60861063 11261264#6 11261264#7 11261264#8 11261264#9 11261264#0 11363288#0 11363288#1 11363288#2 11363288#2-AddedOffRampEdge 11363288#3 11363288#4-AddedOnRampEdge 11363288#4 135646514#0 11261593#0 11261593#1 11261593#2 11261593#3 11261593#4 11261593#5 11261593#7 12476047#0 515896383 776740125#1 776740125#2 776740125#3 14461037 13715489#3 13715489#4 13715489#5 13860534 51101750#0 51101750#2 38457326 13860537#2 13860537#4 38525316 38525317#0 -38525309#4"/>
    </vehicle>
    <vehicle id="22" depart="22.00">
        <route edges="-12125276#9 -12125276#7 -12125276#5 -12125276#0 -23769796 -30417388 30416781 245506151#0 245506151#2 839599265 43989974#1 839595730 836332235#0 37408225#0 -4481903#1 -835871356 -136229571 -835871362 -136229570#1 -363743698 4481902 835458074#0 -136229641#2 -201105323#5 -201105323#2 -4520757#2 41883007#0 201105327#2 4543272 123518664#1 96897356 96897384 41882293#1 136230788#0 41464801#0 136230797 125492780#0 136230794#0 136230794#1 23612657 125332642#0 125332642#2 136230790 175877890 175877883#1 509722710 -10231352#5 -10231352#3 41467054 41467055 41436665#0 41495391 41437263#0 41437263#3 41437263#4 41437263#5 41436660 129215680#1 41467051#0 41467051#1-AddedOnRampEdge 41467051#1 27616478 139240133 156508948 157397603 157397600 4597301#0 26745400#0 26745400#2 136180853#0 156508941#0 156508941#1 156508941#2 4542906 23640046#0-AddedOnRampEdge 23640046#0 23640046#0-AddedOffRampEdge 28092385 26625885#1-AddedOnRampEdge 26625885#1 230991090 678522745 678522746#0 161919649#0 49366887 -231354881 -136181107#1 -136181107#0 -284982274 -41438042#0 -136990099#2 -136990099#0 -48229057#3 -157378831#1 -161919648#1 -157378833 -35137604#2 -48229088 -476631391#2 -476631391#1 -355835752#2 -355835752#1 -35137603 -49549641#4 -49549641#3 -45423941#4 -45423941#3 -45423941#1 -87199617#2 -87199617#1 -87199617#0 -690892046#4 -690892046#2 -690892046#1 -690892046#0 -87199610#5 -87199610#0 -476630800 -35137605#2 -35137605#1 -476630799 -49549644 -691529209#4 -691529209#3 -691529209#1 139314920#2 139314920#3 139314920#0 23388849#0 23388849#2 -29749529#2 29749561#0 29749571#0 -29749571#3"/>
    </vehicle>
    <vehicle id="23" depart="23.00">
        <route edges="-136230790 -125332642#3 -125332642#0 -29047130 -136230794#2 -136230794#0 -125492782#1 -136230797 -41464801#2 -136230788#1 -41882293#1 -96897384 -123699310#6 123433440 -4543272 -123518668 -123518669#1 -44147804#2 -44147804#1 -44147804#0 -4686516#1 -4686516#0 4686515#0 4686515#1 4686515#2 -4515841#7 -36331742#2 -36331742#0"/>
    </vehicle>
    <vehicle id="24" depart="24.00">
        <route edges="22650093 11355158#2 21990971#8 21990971#10 21990971#11 123699343#0 123699343#1 123699344#0 123699344#1 123699344#2 13451018#0 835377827 835377825 22821920 835377826 162799385 23035872#0 23035876#0 -936407797 -936407798 -137491583 -9527812#2 -30130942 30091060#0 -44168233#1 17238182 22733437 837617204 165842350#0 837596447 11260545 11356367#2 27640293 846740179 158827830#0 60419922#0 60419922#1 808935232#0 846740190#0 363743700#0 363743700#2 363743700#3 363743700#4 32354196 32354188#0 60419918 32352792-AddedOnRampEdge 32352792 844804861 389449566 808935233#0 808935233#0-AddedOffRampEdge 808935233#2 15824228#0 15824228#1 15824228#2 15824228#3 4541818#0 352404463 352404463-AddedOffRampEdge 157400447 957264347 957264345 15407180#0 15407180#0-AddedOffRampEdge 60861063 11261264#6 25748150 60861137#0 -60861056#5 -60861056#3 -60861056#2 -60861056#1 -60861056#0 -49581899#13 -49581899#12 -49581899#10 -49581899#9 -49581899#8 -49581899#6 -49581899#3 -49581899#1 -52107914#8 -52107914#7 -52107914#6 -52107914#4 -52107914#3 -52107914#2 -52107914#0 -49572367#8 51499061#0 51499061#1 51499067 51499056#2 -51499056#2"/>
    </vehicle>
    <vehicle id="25" depart="25.00">
        <route edges="-52110716#0 51193719#5 27885884#0 27885884#1 4542899#1 4542900 678514431 678514437#0 678514437#1 678514427 5353717 27326719 27326720 25672319 25672317 678514436 10417843 678514424 10417842 678514423 678514419 5472801#0 678514415 678514414#0 678514414#1 5472978 678514418 678514410 678514408#0 678514408#1 678514408#2 25814194#0 27639303#0 157115293 157382223 157382220 27639352 27639354 442046611 156890738 161124497 156890747 156890720 156890710#0 814880867#0 27391011 156890830#0 -160916530#1 -101520061#2 101519573#0 101519574#0 -162607225#3 -162607225#1 156334473#0 156334473#2 156334473#3 156334473#5 156334473#6 156334473#8 51779351 26586121#0 26586121#1 115638380#0 115638380#1 162617306#0 162617306#3 435548190#2 412990013 116084185 412990026#0 26992565#0 435548184#0 433921627#0 433921627#3 26992224#2 26992224#4 26992224#5 26992224#7 26992224#9 26992224#11 26991734 26991736#0 26991736#1 26991736#2 26991736#3 -26991736#3"/>
    </vehicle>
    <vehicle id="26" depart="26.00">
        <route edges="-35429001#0 -41463589#4 41463589#4 35429001#0 31553552#0 32877847#0 32877847#3 32877847#4 41494182#0 41494182#1 41494183#0 33425215#0 33434563#1 33434563#5 33434563#7 33434617#0 25703175#5 25703175#8 43086367 25703167 43093736#1 43093736#2 43093736#3 27615967#2 27615967#3 97051142 97051139#0 97051139#2 97051139#3 97051139#7 97051139#8 97051139#11 137611770#0 137611770#3 137611770#4 137611770#5 137611770#8 411021781 43585865 25384716#1 25384716#2 25384717 411021770 27616421 26415297 156508941#2 136180645 156508927#0 156508927#1 156508927#2 4542907 26430168#1-AddedOnRampEdge 26430168#1 26430168#1-AddedOffRampEdge 135849816#1 2954692#1-AddedOnRampEdge 2954692#1 8162885 4597219#0 4597219#1 4597219#3 40715824 -42872482 42872484 42872480#4 42872480#0 42872476 -23887428 42872470 23865910#4 23865910#5 23865910#6 23865910#7 23865910#0 42872467#0 42872466 42872474#0 42872474#2 70509127#0 70509127#1 70509122 70509172#2 -70509117#0 70509117#0"/>
    </vehicle>
    <vehicle id="27" depart="27.00">
        <route edges="23044759#0 -23044759#15 22731871#2 22731871#5 44147798#0 44147798#13 -22945334#8 4686563#0 44147815 28760978#0 44147801#0 44147801#6 28760981#0 30952120#0 123518666#1 27947412#0 27947412#3 28871873#4 -41463555 -26584531#0 41463557#0 41463557#4 44366150#0 44366150#2 48905469 44366154 26584621 59652360#0 59652360#1 59652360#2 59652360#3 48427757#0 48427757#1 410929572#0 410929572#2 410929572#4 165830335#0 165830335#1 26584600#0 26584600#2 25703159 159215089 25703163 159215106 678514437#1 678514427 5353717 27326719 27326720 25672319 25672317 678514436 10417843 678514424 10417842 678514423 678514422 678514421#0 939327711 5527084 161131233 27562033#0 104797141#0 104797141#6 104797141#7 104797141#8 27326439#0 27326440#0 27326440#3 104797158#0 104797158#4 104797158#7 104797158#9 104797152#0 104797152#1 233570527#0 233570527#2 162602684#0 162602684#2 117329606#1 117329581 51779292#0 104797147#0 28508871#0 49709148#0 23389769 49714468#0 49714468#9 -161124502#3 -161124502#0 -161124487#1 -161124489#4 161124489#4"/>
    </vehicle>
    <vehicle id="28" depart="28.00">
        <route edges="-23887488#2 23887488#0 -23887463#0 -229074657 -23887464 -60861134#3 -60861134#1 -23388846#4 -23388846#3 -23388846#0 -70509136#3 -70509136#2 -87834909#5 -21137913#4 -21137913#2 -21137913#0 -23887447#4 -23887447#2 -23887447#1 -23641995#2 -23641988#7 -23641988#5 -23641988#4 -23641988#1 -23641988#0 -22674878#12 -22674878#10 -22674878#7 -22674878#4 -22674878#3 -22674878#2 -22674878#1 -22674878#0 22567356#0 4597219#3 4597219#4 4597219#6 4597220 135849335#1-AddedOnRampEdge 135849335#1 135849335#1-AddedOffRampEdge 745207005 26745223-AddedOnRampEdge 26745223 26745223-AddedOffRampEdge 4602563 28998801-AddedOnRampEdge 28998801 28998801-AddedOffRampEdge 11362535 957264348#0 957264345 15407180#0 15407180#0-AddedOffRampEdge 60861063 11261264#6 11261264#7 11261264#8 11261264#9 11261264#0 11363288#0 11363288#1 11363288#2 11363288#2-AddedOffRampEdge 11363288#3 11363288#4-AddedOnRampEdge 11363288#4 135646514#0 11261593#0 11261593#1 11261593#2 11261593#3 11261593#4 11261593#5 11261593#7 12476047#0 515896383 776740125#1 776740125#2 776740125#3 14461037 13715489#3 24882274 13715345#8 13715345#1 13715345#2 13715345#3 13715345#4 37976444 -37976439#1 -37976439#0 26573316#1 26573316#2 26573316#3 -37976455#5 26757921#0 39551316#0 -28002353#7 -26936964#2 -28097638#1 28097638#0"/>
    </vehicle>
    <vehicle id="29" depart="29.00">
        <route edges="-23353956 23353736#1 23353735 23353741 -23353777 23353767#1 44289592 23353646 -23353631 -23172901#2 -23172901#1 -23172901#0 -123699324 -123723623#0 -96897360 17364390#0 96897368#0 96897368#1 96897368#3 96897368#4 30386005 22962988#4 22962988#5 22962988#6 22962988#7 22962990 30385611#0 30385611#1 30385611#2 9473486#3 -96897375#1 -96897377#1 -96897377#0 -9473485#6 -9473485#4 -9473485#3 -9473485#2 -9473485#1 -9473485#0 123433440 -4543272 -123518668 -123518669#1 -44147804#2 -44147804#1 -44147804#0 -4686516#1 -4686516#0 -22945334#8 -44147799#10 -44147799#7 -44147799#2 -44147799#0 -23888378#5 -23888375#5 -59434335 -19785545 -4686512 -59434329#7 -59434329#5 -59434329#2 -59434329#0 54951494#0 54951494#1 54951494#2 -54951494#3"/>
    </vehicle>