<additional>
    <flow id="121541674_15808517.qPKW" departSpeed="max" departPos="last" departLane="best" route="121541674_15808517.qPKW" number="147" begin="0" end="3600"/>
    <flow id="12495691#0_12495996#1.qPKW" departSpeed="max" departPos="last" departLane="best" route="12495691#0_12495996#1.qPKW" number="3" begin="0" end="3600"/>
    <flow id="13715242#0_12495996#1.qPKW" departSpeed="max" departPos="last" departLane="best" route="13715242#0_12495996#1.qPKW" number="2" begin="0" end="3600"/>
    <flow id="13715242#0_100652423.qPKW" departSpeed="max" departPos="last" departLane="best" route="13715242#0_100652423.qPKW" number="2" begin="0" end="3600"/>
    <flow id="137929561_156504197#1.qPKW" departSpeed="max" departPos="last" departLane="best" route="137929561_156504197#1.qPKW" number="1825" begin="0" end="3600"/>
    <flow id="14360316#0_32877932#0.qPKW" departSpeed="max" departPos="last" departLane="best" route="14360316#0_32877932#0.qPKW" number="754" begin="0" end="3600"/>
    <flow id="14360316#0_156504197#1.qPKW" departSpeed="max" departPos="last" departLane="best" route="14360316#0_156504197#1.qPKW" number="2" begin="0" end="3600"/>
    <flow id="14360316#0_117485991.qPKW" departSpeed="max" departPos="last" departLane="best" route="14360316#0_117485991.qPKW" number="2" begin="0" end="3600"/>
    <flow id="14360316#0_156504197#1.1.qPKW" departSpeed="max" departPos="last" departLane="best" route="14360316#0_156504197#1.1.qPKW" number="1" begin="0" end="3600"/>
    <flow id="14360316#0_117485991.1.qPKW" departSpeed="max" departPos="last" departLane="best" route="14360316#0_117485991.1.qPKW" number="2" begin="0" end="3600"/>
    <flow id="2415230#0_76403782#0.qPKW" departSpeed="max" departPos="last" departLane="best" route="2415230#0_76403782#0.qPKW" number="1589" begin="0" end="3600"/>
    <flow id="32878049#0_15808517.qPKW" departSpeed="max" departPos="last" departLane="best" route="32878049#0_15808517.qPKW" number="52" begin="0" end="3600"/>
    <flow id="32878049#0_27563685#1.qPKW" departSpeed="max" departPos="last" departLane="best" route="32878049#0_27563685#1.qPKW" number="6" begin="0" end="3600"/>
</additional>
