<?xml version="1.0" encoding="UTF-8"?>
<!-- generated on 2021-08-18 18:51:54.243703 by $Id$ v1_9_2+0000-4206cfae24
  options: -n swansea.net.xml -o traffic_trips.xml <doubleminus>route-file traffic_routes.xml -e 3600 -p 1
-->
<routes xmlns:xsi="http://www.w3.org/2001/XMLSchema-instance" xsi:noNamespaceSchemaLocation="http://sumo.dlr.de/xsd/routes_file.xsd">
    <trip id="0" depart="0.00" from="23640046#0-AddedOnRampEdge" to="-11489488#0"/>
    <trip id="1" depart="1.00" from="-37873035" to="-32446222#2"/>
    <trip id="2" depart="2.00" from="33577255#0" to="25151294#0"/>
    <trip id="3" depart="3.00" from="5666764#0" to="-15401881"/>
    <trip id="4" depart="4.00" from="-773840052#2" to="-117882884"/>
    <trip id="5" depart="5.00" from="-306492929#8" to="119335400"/>
    <trip id="6" depart="6.00" from="-11645276#1" to="-26625926#2"/>
    <trip id="7" depart="7.00" from="23925357#0" to="13629968#0"/>
    <trip id="8" depart="8.00" from="-314564483#1" to="20444513#0"/>
    <trip id="9" depart="9.00" from="43086386#0" to="-10298183#4"/>
    <trip id="10" depart="10.00" from="42801982#1" to="26774820"/>
    <trip id="11" depart="11.00" from="-49023019" to="-238540817#0"/>
    <trip id="12" depart="12.00" from="842345992" to="-48853046#1"/>
    <trip id="13" depart="13.00" from="-160839146#2" to="-16356077#12"/>
    <trip id="14" depart="14.00" from="48348882#0" to="225561228#2"/>
    <trip id="15" depart="15.00" from="42872474#11" to="33391258#3"/>
    <trip id="16" depart="16.00" from="130149040" to="90239668#0"/>
    <trip id="17" depart="17.00" from="-59361653#2" to="13860618#5"/>
    <trip id="18" depart="18.00" from="45324462#2" to="22905793#5"/>
    <trip id="19" depart="19.00" from="49234490#1" to="16356077#2"/>
    <trip id="20" depart="20.00" from="27609157" to="-12124318#0"/>
    <trip id="21" depart="21.00" from="-33391731#2" to="-41495390#1"/>
    <trip id="22" depart="22.00" from="-14297041#1" to="-33536502"/>
    <trip id="23" depart="23.00" from="-176488081#5" to="-40657799#0"/>
    <trip id="24" depart="24.00" from="23546526#0" to="-513705579#2"/>
    <trip id="25" depart="25.00" from="-55039385#0" to="-28045320#0"/>
    <trip id="26" depart="26.00" from="-36098986#0" to="70948629"/>
    <trip id="27" depart="27.00" from="23887602#1" to="22724492"/>
    <trip id="28" depart="28.00" from="-24423780#0" to="32877868#1"/>
    <trip id="29" depart="29.00" from="-24044870#0" to="-59434329#7"/>
    <trip id="30" depart="30.00" from="939448519#1" to="23641955#0"/>
    <trip id="31" depart="31.00" from="14359309#1" to="25789898"/>
    <trip id="32" depart="32.00" from="4686513#1" to="37073996#0"/>
    <trip id="33" depart="33.00" from="-33393818#0" to="-118713802#3"/>
    <trip id="34" depart="34.00" from="-449697912#0" to="-361324050"/>
    <trip id="35" depart="35.00" from="-28198626#4" to="740625602"/>
    <trip id="36" depart="36.00" from="50250573#1" to="-44887694#1"/>
    <trip id="37" depart="37.00" from="24048831#6" to="-61351088"/>
    <trip id="38" depart="38.00" from="610924545" to="-9473485#2"/>
    <trip id="39" depart="39.00" from="-35572725#0" to="-34261715#0"/>
    <trip id="40" depart="40.00" from="15219108" to="-35471230#0"/>
    <trip id="41" depart="41.00" from="19259449#1" to="59434320#3"/>
    <trip id="42" depart="42.00" from="-623218116#0" to="-30805435#1"/>
    <trip id="43" depart="43.00" from="96897371#1" to="120824335"/>
    <trip id="44" depart="44.00" from="-15804682#1" to="-121574547"/>
    <trip id="45" depart="45.00" from="-20886493#1" to="23129033#3"/>
    <trip id="46" depart="46.00" from="41463589#2" to="-773840053#6"/>
    <trip id="47" depart="47.00" from="-130148101" to="-59652353#1"/>
    <trip id="48" depart="48.00" from="96570803#3-AddedOnRampEdge" to="125492784#5"/>
    <trip id="49" depart="49.00" from="89698038#0" to="49234478#0"/>
    <trip id="50" depart="50.00" from="-10426320#0" to="30851874"/>
    <trip id="51" depart="51.00" from="25722698#1" to="131620264#0"/>
    <trip id="52" depart="52.00" from="-36098984#3" to="23695340#0"/>
    <trip id="53" depart="53.00" from="-20894397#1" to="-89178509"/>
    <trip id="54" depart="54.00" from="-92162127#0" to="835458078"/>
    <trip id="55" depart="55.00" from="50250537#2" to="-35471241#1"/>
    <trip id="56" depart="56.00" from="116907961" to="-24645219#7"/>
    <trip id="57" depart="57.00" from="60852039" to="49876863"/>
    <trip id="58" depart="58.00" from="-42802024#7" to="23639879#0"/>
    <trip id="59" depart="59.00" from="22690389" to="-23695358#0"/>
    <trip id="60" depart="60.00" from="35393343#1" to="13305890#2"/>
    <trip id="61" depart="61.00" from="37341890#4" to="12628973#0"/>
    <trip id="62" depart="62.00" from="-10158749#7" to="-45767335#1"/>
    <trip id="63" depart="63.00" from="-10905059#1" to="69481139"/>
    <trip id="64" depart="64.00" from="51008440#0" to="45396213#0"/>
    <trip id="65" depart="65.00" from="-44147807#3" to="-125813056"/>
    <trip id="66" depart="66.00" from="509722712#0" to="758875881#0"/>
    <trip id="67" depart="67.00" from="-15219269#1" to="10639389#11"/>
    <trip id="68" depart="68.00" from="-13440054#1" to="35393312#3"/>
    <trip id="69" depart="69.00" from="35471218#4" to="-22730186"/>
    <trip id="70" depart="70.00" from="10305001#2" to="13768372"/>
    <trip id="71" depart="71.00" from="-35692103#0" to="49876926#1"/>
    <trip id="72" depart="72.00" from="-7817485#5" to="-28599003#5"/>
    <trip id="73" depart="73.00" from="13305890#0" to="33391580#1"/>
    <trip id="74" depart="74.00" from="-26822123#0" to="-44362715#3"/>
    <trip id="75" depart="75.00" from="963411072" to="23925357#0"/>
    <trip id="76" depart="76.00" from="-89697993#1" to="121166175"/>
    <trip id="77" depart="77.00" from="-225561228#0" to="-32877651#1"/>
    <trip id="78" depart="78.00" from="-48976741#0" to="20340937#2"/>
    <trip id="79" depart="79.00" from="-33435575#1" to="-314547267#5"/>
    <trip id="80" depart="80.00" from="-13629889#0" to="23339049#0"/>
    <trip id="81" depart="81.00" from="-33393811#1" to="60270054"/>
    <trip id="82" depart="82.00" from="49233227#1" to="-136230797"/>
    <trip id="83" depart="83.00" from="-33651088#2" to="24628686#0"/>
    <trip id="84" depart="84.00" from="-28871873#5" to="-22883401#0"/>
    <trip id="85" depart="85.00" from="70948316" to="160119619"/>
    <trip id="86" depart="86.00" from="10267448" to="40715899#6"/>
    <trip id="87" depart="87.00" from="42872478" to="-25936845#3"/>
    <trip id="88" depart="88.00" from="-16356077#6" to="-87834887#1"/>
    <trip id="89" depart="89.00" from="-79603300" to="100444340"/>
    <trip id="90" depart="90.00" from="32877868#1" to="24662916#0"/>
    <trip id="91" depart="91.00" from="92162125#0" to="-17080244#1"/>
    <trip id="92" depart="92.00" from="-686280057" to="-48981684#0"/>
    <trip id="93" depart="93.00" from="49234490#0" to="-34411252#0"/>
    <trip id="94" depart="94.00" from="-25836051#4" to="-91180161#1"/>
    <trip id="95" depart="95.00" from="-773840051#1" to="-40715899#5"/>
    <trip id="96" depart="96.00" from="-34598870#16" to="686262055#0"/>
    <trip id="97" depart="97.00" from="-90446816" to="49234484"/>
    <trip id="98" depart="98.00" from="137918300" to="-121818944#6"/>
    <trip id="99" depart="99.00" from="97051139#3" to="45767320#0"/>
    <trip id="100" depart="100.00" from="89697999" to="687216597"/>
    <trip id="101" depart="101.00" from="48427748#4" to="-241598410#0"/>
    <trip id="102" depart="102.00" from="10639382" to="-28761284#5"/>
    <trip id="103" depart="103.00" from="-671997584#0" to="-12629281#3"/>
    <trip id="104" depart="104.00" from="-59434322#4" to="92166548#1"/>
    <trip id="105" depart="105.00" from="-35692103#2" to="40712920"/>
    <trip id="106" depart="106.00" from="-922255652" to="-7817461#7"/>
    <trip id="107" depart="107.00" from="84523797" to="965221140"/>
    <trip id="108" depart="108.00" from="14298480#0" to="30416781"/>
    <trip id="109" depart="109.00" from="-23801184#0" to="-42798145#2"/>
    <trip id="110" depart="110.00" from="89697993#0" to="17164806#0"/>
    <trip id="111" depart="111.00" from="13440054#6" to="34261450"/>
    <trip id="112" depart="112.00" from="-125332642#3" to="185171137#2"/>
    <trip id="113" depart="113.00" from="117883579" to="48905508"/>
    <trip id="114" depart="114.00" from="-23887567#1" to="87834886"/>
    <trip id="115" depart="115.00" from="-14298372#1" to="-25564503#1"/>
    <trip id="116" depart="116.00" from="21312062" to="24824445#1"/>
    <trip id="117" depart="117.00" from="-33577270#0" to="-22416371#5"/>
    <trip id="118" depart="118.00" from="55880333#0" to="-34261568#0"/>
    <trip id="119" depart="119.00" from="21137923#0" to="22943517#1"/>
    <trip id="120" depart="120.00" from="-742076743" to="185171128"/>
    <trip id="121" depart="121.00" from="121818944#3" to="70509171#0"/>
    <trip id="122" depart="122.00" from="-27326715" to="29586496#0"/>
    <trip id="123" depart="123.00" from="-33651097" to="-61351092#3"/>
    <trip id="124" depart="124.00" from="24645309#3" to="-43086362"/>
    <trip id="125" depart="125.00" from="-4520758#1" to="34307360"/>
    <trip id="126" depart="126.00" from="-13637284#3" to="-94373860#0"/>
    <trip id="127" depart="127.00" from="96904603#0" to="96570803#3-AddedOnRampEdge"/>
    <trip id="128" depart="128.00" from="-13714176" to="-28760961#1"/>
    <trip id="129" depart="129.00" from="-35692103#2" to="70509130#4"/>
    <trip id="130" depart="130.00" from="51193719#4" to="510485775#1"/>
    <trip id="131" depart="131.00" from="-54964872" to="-23887578#4"/>
    <trip id="132" depart="132.00" from="4550187#2" to="27390597#0"/>
    <trip id="133" depart="133.00" from="22731873#0" to="925611367"/>
    <trip id="134" depart="134.00" from="24044912#1" to="-10305517#1"/>
    <trip id="135" depart="135.00" from="44147800#0" to="-42919193#2"/>
    <trip id="136" depart="136.00" from="24492268#0" to="724089233#1"/>
    <trip id="137" depart="137.00" from="-22905857#1" to="-21554059#4"/>
    <trip id="138" depart="138.00" from="-20444212#0" to="139239682#3"/>
    <trip id="139" depart="139.00" from="-37074032#1" to="22650073#2"/>
    <trip id="140" depart="140.00" from="30385164#0" to="-27046452"/>
    <trip id="141" depart="141.00" from="23481316#2" to="-35572711#2"/>
    <trip id="142" depart="142.00" from="10754011#2" to="60270050"/>
    <trip id="143" depart="143.00" from="48133031#0" to="-160119663"/>
    <trip id="144" depart="144.00" from="-79603300" to="-40301262#0"/>
    <trip id="145" depart="145.00" from="-10262806#0" to="36098981#0"/>
    <trip id="146" depart="146.00" from="23556555" to="-35471218#6"/>
    <trip id="147" depart="147.00" from="33651099#0" to="13851237#7"/>
    <trip id="148" depart="148.00" from="-839614211#2" to="-10311124#0"/>
    <trip id="149" depart="149.00" from="-137918289#1" to="516233855"/>
    <trip id="150" depart="150.00" from="60270030" to="13635176#2"/>
    <trip id="151" depart="151.00" from="4554180#0" to="179066527#0"/>
    <trip id="152" depart="152.00" from="-23546529#2" to="-22724524#1"/>
    <trip id="153" depart="153.00" from="-44167800#1" to="59434332#0"/>
    <trip id="154" depart="154.00" from="41494186#3" to="49234476#1"/>
    <trip id="155" depart="155.00" from="59434332#0" to="-28198613#0"/>
    <trip id="156" depart="156.00" from="-34598680#0" to="-185171136"/>
    <trip id="157" depart="157.00" from="374891032#2" to="529804292"/>
    <trip id="158" depart="158.00" from="-68911264#5" to="22962990"/>
    <trip id="159" depart="159.00" from="-23801178#1" to="69724783"/>
    <trip id="160" depart="160.00" from="49364122" to="91154658#1"/>
    <trip id="161" depart="161.00" from="43585888" to="513338831"/>
    <trip id="162" depart="162.00" from="-11361974#1" to="33577255#1"/>
    <trip id="163" depart="163.00" from="-48133041#1" to="699048517#1"/>
    <trip id="164" depart="164.00" from="42401138#1" to="49364114"/>
    <trip id="165" depart="165.00" from="43585888" to="-36098984#1"/>
    <trip id="166" depart="166.00" from="41241561" to="-20445017"/>
    <trip id="167" depart="167.00" from="49876917#1" to="49233203#0"/>
    <trip id="168" depart="168.00" from="-32264948#3" to="44140516#1"/>
    <trip id="169" depart="169.00" from="-957264359" to="-44139875#5"/>
    <trip id="170" depart="170.00" from="41494183#0" to="-33391170#6"/>
    <trip id="171" depart="171.00" from="-11256718#5" to="-26195644"/>
    <trip id="172" depart="172.00" from="-466365884#3" to="49364118#4"/>
    <trip id="173" depart="173.00" from="89178546#1" to="-40802827#2"/>
    <trip id="174" depart="174.00" from="23695351" to="-63819362"/>
    <trip id="175" depart="175.00" from="912322786" to="130149040"/>
    <trip id="176" depart="176.00" from="724463676#0" to="-21554059#1"/>
    <trip id="177" depart="177.00" from="89698020" to="-24645219#4"/>
    <trip id="178" depart="178.00" from="880422032#0" to="-35814467#0"/>
    <trip id="179" depart="179.00" from="-20662794#1" to="-89178505#1"/>
    <trip id="180" depart="180.00" from="32877830#0" to="-4481903#1"/>
    <trip id="181" depart="181.00" from="22652386" to="120921143#0"/>
    <trip id="182" depart="182.00" from="-60270042#8" to="16288389#1"/>
    <trip id="183" depart="183.00" from="-35392240#0" to="27740931#0"/>
    <trip id="184" depart="184.00" from="-10160613#3" to="687214996"/>
    <trip id="185" depart="185.00" from="132816970" to="30417623#2"/>
    <trip id="186" depart="186.00" from="33711494#0" to="24645221#1"/>
    <trip id="187" depart="187.00" from="-513338829" to="-13483108#0"/>
    <trip id="188" depart="188.00" from="24540147#0" to="-47267579#3"/>
    <trip id="189" depart="189.00" from="-4486522#3" to="48348891"/>
    <trip id="190" depart="190.00" from="30417784#0" to="-43086380"/>
    <trip id="191" depart="191.00" from="-44289584#0" to="-69724792"/>
    <trip id="192" depart="192.00" from="-679020123#0" to="-42403500#0"/>
    <trip id="193" depart="193.00" from="-22724523#5" to="-758875881#0"/>
    <trip id="194" depart="194.00" from="73008337" to="25384719#3"/>
    <trip id="195" depart="195.00" from="60187241#9" to="22821920"/>
    <trip id="196" depart="196.00" from="-43093736#8" to="137491593#0"/>
    <trip id="197" depart="197.00" from="-10158749#11" to="-41474760#1"/>
    <trip id="198" depart="198.00" from="-87834848#1" to="17343352#1"/>
    <trip id="199" depart="199.00" from="24046053#1" to="-96897377#0"/>
    <trip id="200" depart="200.00" from="-90239654#2" to="-28761225#1"/>
    <trip id="201" depart="201.00" from="10270128#0" to="59652358#0"/>
    <trip id="202" depart="202.00" from="41494186#0" to="-24376045#10"/>
    <trip id="203" depart="203.00" from="-15091131#1" to="121166127#6"/>
    <trip id="204" depart="204.00" from="233572670" to="-48427767"/>
    <trip id="205" depart="205.00" from="44167796#1" to="34261898#0"/>
    <trip id="206" depart="206.00" from="24652169#0" to="-32877651#0"/>
    <trip id="207" depart="207.00" from="-26745248" to="-11355098#10"/>
    <trip id="208" depart="208.00" from="-34261444#0" to="10304915"/>
    <trip id="209" depart="209.00" from="48427760#0" to="-13712628#0"/>
    <trip id="210" depart="210.00" from="-70948648#0" to="23211185#0"/>
    <trip id="211" depart="211.00" from="-26431708#0" to="26584579#0"/>
    <trip id="212" depart="212.00" from="11088163" to="-33995445#1"/>
    <trip id="213" depart="213.00" from="241363830#1" to="-10275640"/>
    <trip id="214" depart="214.00" from="34261897#2" to="35814467#1"/>
    <trip id="215" depart="215.00" from="-20142997#1" to="-82856484#2"/>
    <trip id="216" depart="216.00" from="-24593243" to="846740201"/>
    <trip id="217" depart="217.00" from="12123406#1" to="-121818943"/>
    <trip id="218" depart="218.00" from="-34411261#7" to="48352343"/>
    <trip id="219" depart="219.00" from="-936407794" to="42401128#0"/>
    <trip id="220" depart="220.00" from="24605515#0" to="936407778"/>
    <trip id="221" depart="221.00" from="21320414#1" to="7817474#1"/>
    <trip id="222" depart="222.00" from="5666756#1" to="22752375#2"/>
    <trip id="223" depart="223.00" from="30417608#4" to="118713805#0"/>
    <trip id="224" depart="224.00" from="45379059" to="137491592#0"/>
    <trip id="225" depart="225.00" from="59148645#7" to="33711517#0"/>
    <trip id="226" depart="226.00" from="10304643" to="-35393347#1"/>
    <trip id="227" depart="227.00" from="-34261873" to="23583312#0"/>
    <trip id="228" depart="228.00" from="35471218#2" to="121661513"/>
    <trip id="229" depart="229.00" from="23116929#1" to="-374447541#2"/>
    <trip id="230" depart="230.00" from="-13860680" to="-41463589#1"/>
    <trip id="231" depart="231.00" from="-37074022#1" to="-45379123#1"/>
    <trip id="232" depart="232.00" from="133204970#0" to="-23029167#2"/>
    <trip id="233" depart="233.00" from="-33536491#2" to="26550954#4"/>
    <trip id="234" depart="234.00" from="27625478#0" to="-130149041"/>
    <trip id="235" depart="235.00" from="-69481200#2" to="13451018#0"/>
    <trip id="236" depart="236.00" from="-724464099#0" to="-27625478#3"/>
    <trip id="237" depart="237.00" from="-75149968#2" to="60270045#1"/>
    <trip id="238" depart="238.00" from="185171135#1" to="26551382#2"/>
    <trip id="239" depart="239.00" from="49231938#1" to="35471215"/>
    <trip id="240" depart="240.00" from="-59434340" to="-10297766#0"/>
    <trip id="241" depart="241.00" from="-49619078#0" to="34598870#7"/>
    <trip id="242" depart="242.00" from="48976743#0" to="833625242"/>
    <trip id="243" depart="243.00" from="-740671217" to="34261414#2"/>
    <trip id="244" depart="244.00" from="13636361#5" to="22462816#0"/>
    <trip id="245" depart="245.00" from="-314564811#2" to="-30846851#1"/>
    <trip id="246" depart="246.00" from="-89178531" to="-117334010#1"/>
    <trip id="247" depart="247.00" from="-48853033#0" to="25564542#1"/>
    <trip id="248" depart="248.00" from="-687215004" to="-24048832#4"/>
    <trip id="249" depart="249.00" from="101552351#1" to="-22724525"/>
    <trip id="250" depart="250.00" from="22974106#0" to="-11645875#2"/>
    <trip id="251" depart="251.00" from="-60861135#5" to="15403658#1"/>
    <trip id="252" depart="252.00" from="-11646041#0" to="23733671#1"/>
    <trip id="253" depart="253.00" from="-22945426#1" to="-96001187#0"/>
    <trip id="254" depart="254.00" from="-121818944#0" to="-59434327#0"/>
    <trip id="255" depart="255.00" from="-28599003#1" to="-4602947#0"/>
    <trip id="256" depart="256.00" from="35393320#1" to="-59434327#0"/>
    <trip id="257" depart="257.00" from="34307426#1" to="4542898#0"/>
    <trip id="258" depart="258.00" from="-35069251#1" to="-14359544#2"/>
    <trip id="259" depart="259.00" from="-108831889" to="133147926#0"/>
    <trip id="260" depart="260.00" from="99025100#1" to="-49619012#6"/>
    <trip id="261" depart="261.00" from="23943267#0" to="38790937#4"/>
    <trip id="262" depart="262.00" from="23950070#0" to="34598921#0"/>
    <trip id="263" depart="263.00" from="7817467#4" to="-26771518#1"/>
    <trip id="264" depart="264.00" from="-110256863#12" to="-23695340#1"/>
    <trip id="265" depart="265.00" from="-22690389" to="24645063#2"/>
    <trip id="266" depart="266.00" from="15399346" to="-30417623#2"/>
    <trip id="267" depart="267.00" from="26821907#0" to="35471232"/>
    <trip id="268" depart="268.00" from="-24269953#1" to="22663189#0"/>
    <trip id="269" depart="269.00" from="34261450" to="-21321621"/>
    <trip id="270" depart="270.00" from="44289582#0" to="889996857"/>
    <trip id="271" depart="271.00" from="-20445043" to="-115028418#2"/>
    <trip id="272" depart="272.00" from="-44362720" to="25384874#0"/>
    <trip id="273" depart="273.00" from="84931573#2" to="-61351117#1"/>
    <trip id="274" depart="274.00" from="28871871#1" to="-137918302#7"/>
    <trip id="275" depart="275.00" from="26415434#0" to="23116986"/>
    <trip id="276" depart="276.00" from="-185171125#1" to="36331742#0"/>
    <trip id="277" depart="277.00" from="48630977" to="223440605#1"/>
    <trip id="278" depart="278.00" from="-225561228#1" to="92162117#0"/>
    <trip id="279" depart="279.00" from="40301267#3" to="-49234767#1"/>
    <trip id="280" depart="280.00" from="-84931573#1" to="-55059599"/>
    <trip id="281" depart="281.00" from="120402876" to="-49066038"/>
    <trip id="282" depart="282.00" from="48427758#1" to="44362716"/>
    <trip id="283" depart="283.00" from="-201105323#5" to="87834886"/>
    <trip id="284" depart="284.00" from="23542219" to="45324449#0"/>
    <trip id="285" depart="285.00" from="27639849#5" to="-89178525#0"/>
    <trip id="286" depart="286.00" from="33536491#5" to="89178511"/>
    <trip id="287" depart="287.00" from="-36933604#4" to="42920563#0"/>
    <trip id="288" depart="288.00" from="132734380" to="10594620#2"/>
    <trip id="289" depart="289.00" from="-89178526#1" to="33393191"/>
    <trip id="290" depart="290.00" from="-36331751#0" to="48853046#1"/>
    <trip id="291" depart="291.00" from="45379095#0" to="-15398114"/>
    <trip id="292" depart="292.00" from="513705576#1" to="-33995439#5"/>
    <trip id="293" depart="293.00" from="-96897376#1" to="22724524#4"/>
    <trip id="294" depart="294.00" from="-59434322#4" to="-117220305#1"/>
    <trip id="295" depart="295.00" from="4884447#0" to="-24698169"/>
    <trip id="296" depart="296.00" from="-28619790" to="41530029#7"/>
    <trip id="297" depart="297.00" from="-49023020#2" to="511552926#4"/>
    <trip id="298" depart="298.00" from="26841959#1" to="-39215249"/>
    <trip id="299" depart="299.00" from="-10357411#0" to="773840052#3"/>
    <trip id="300" depart="300.00" from="-15219230#5" to="306492929#5"/>
    <trip id="301" depart="301.00" from="10754466#0" to="35392239"/>
    <trip id="302" depart="302.00" from="26415434#0" to="23887463#1"/>
    <trip id="303" depart="303.00" from="108821264" to="41467052#1"/>
    <trip id="304" depart="304.00" from="-16085994#0" to="-31553551#0"/>
    <trip id="305" depart="305.00" from="26431716#0" to="-44140511#2"/>
    <trip id="306" depart="306.00" from="17365908#7" to="10270128#1"/>
    <trip id="307" depart="307.00" from="126851322" to="-834786573"/>
    <trip id="308" depart="308.00" from="33995343#2" to="-48133023#1"/>
    <trip id="309" depart="309.00" from="27326284#9" to="-37073993"/>
    <trip id="310" depart="310.00" from="-35069229" to="-22462812#1"/>
    <trip id="311" depart="311.00" from="-26195597" to="-22416325#1"/>
    <trip id="312" depart="312.00" from="130148127" to="35393331#0"/>
    <trip id="313" depart="313.00" from="-25537912#0" to="-30130942"/>
    <trip id="314" depart="314.00" from="10594628#0" to="32300117"/>
    <trip id="315" depart="315.00" from="91178032#1" to="123570693#0"/>
    <trip id="316" depart="316.00" from="-41432522#3" to="-17365908#7"/>
    <trip id="317" depart="317.00" from="-264212593#1" to="-33335073"/>
    <trip id="318" depart="318.00" from="-24645307#0" to="-10633408#1"/>
    <trip id="319" depart="319.00" from="129645961" to="-37367482#3"/>
    <trip id="320" depart="320.00" from="90446837#0" to="139239697#0"/>
    <trip id="321" depart="321.00" from="26745212-AddedOffRampEdge" to="-22690392"/>
    <trip id="322" depart="322.00" from="49619097#6" to="108821264"/>
    <trip id="323" depart="323.00" from="49876929#2" to="16099083"/>
    <trip id="324" depart="324.00" from="10231352#4" to="-89698035#1"/>
    <trip id="325" depart="325.00" from="-24936121#1" to="-122959024#0"/>
    <trip id="326" depart="326.00" from="733654971#0" to="10306651#0"/>
    <trip id="327" depart="327.00" from="44362713#3" to="-65331896#1"/>
    <trip id="328" depart="328.00" from="-137611768#8" to="23211177#7"/>
    <trip id="329" depart="329.00" from="-123699336#3" to="-23556524#1"/>
    <trip id="330" depart="330.00" from="15242076" to="-43989967#4"/>
    <trip id="331" depart="331.00" from="96001122#0" to="-223440609#0"/>
    <trip id="332" depart="332.00" from="354418502#1" to="22652398#0"/>
    <trip id="333" depart="333.00" from="41436662" to="-32877742"/>
    <trip id="334" depart="334.00" from="121818942#3" to="-912322786"/>
    <trip id="335" depart="335.00" from="-90446800" to="49234470"/>
    <trip id="336" depart="336.00" from="941377802#2" to="-44139877"/>
    <trip id="337" depart="337.00" from="22963000#0" to="22724497#0"/>
    <trip id="338" depart="338.00" from="33651082" to="762803651"/>
    <trip id="339" depart="339.00" from="-27639979" to="-28198626#7"/>
    <trip id="340" depart="340.00" from="24376045#0" to="-23887530#1"/>
    <trip id="341" depart="341.00" from="-24540750#1" to="-13768368#1"/>
    <trip id="342" depart="342.00" from="-10243940#0" to="-912322786"/>
    <trip id="343" depart="343.00" from="21137912#1" to="-41872957#1"/>
    <trip id="344" depart="344.00" from="-33536491#6" to="27638223"/>
    <trip id="345" depart="345.00" from="27326286#0" to="-92162133#1"/>
    <trip id="346" depart="346.00" from="26170701#0" to="686322600"/>
    <trip id="347" depart="347.00" from="41241572#2" to="23036496#1"/>
    <trip id="348" depart="348.00" from="24389280#0" to="70509138#0"/>
    <trip id="349" depart="349.00" from="-82856484#2" to="136230794#0"/>
    <trip id="350" depart="350.00" from="23887578#4" to="60815159#1"/>
    <trip id="351" depart="351.00" from="449697912#0" to="-13635017#0"/>
    <trip id="352" depart="352.00" from="-241594552#4" to="-44147811#0"/>
    <trip id="353" depart="353.00" from="34261553#3" to="15808517"/>
    <trip id="354" depart="354.00" from="-41494186#1" to="-22663185#1"/>
    <trip id="355" depart="355.00" from="26195582#1" to="26822122#5"/>
    <trip id="356" depart="356.00" from="737655497" to="11651660"/>
    <trip id="357" depart="357.00" from="110691260" to="-14298548"/>
    <trip id="358" depart="358.00" from="-121078970" to="-87834904#3"/>
    <trip id="359" depart="359.00" from="-4555306#3" to="-34598886"/>
    <trip id="360" depart="360.00" from="-15899895#0" to="87834904#4"/>
    <trip id="361" depart="361.00" from="45767319" to="16277979#0"/>
    <trip id="362" depart="362.00" from="7817488#2" to="97337499#2"/>
    <trip id="363" depart="363.00" from="24651997#2" to="-368371166#0"/>
    <trip id="364" depart="364.00" from="-12110831#1" to="35069255"/>
    <trip id="365" depart="365.00" from="102481677" to="23943769#7"/>
    <trip id="366" depart="366.00" from="61351099" to="-24662914"/>
    <trip id="367" depart="367.00" from="19588990#2" to="23481376"/>
    <trip id="368" depart="368.00" from="110256840" to="-158732035#5"/>
    <trip id="369" depart="369.00" from="-49364092#1" to="-48348895"/>
    <trip id="370" depart="370.00" from="24645217#3" to="49233191"/>
    <trip id="371" depart="371.00" from="-47267161#3" to="26528448#1"/>
    <trip id="372" depart="372.00" from="-41494185#12" to="745421458#1"/>
    <trip id="373" depart="373.00" from="43989971#2" to="137918296#0"/>
    <trip id="374" depart="374.00" from="-92166558#2" to="-44887693#0"/>
    <trip id="375" depart="375.00" from="-4571205#6" to="89698017#1"/>
    <trip id="376" depart="376.00" from="-687214996" to="121153722#5"/>
    <trip id="377" depart="377.00" from="936407787#0" to="24255249#2"/>
    <trip id="378" depart="378.00" from="13451018#0" to="-70948628"/>
    <trip id="379" depart="379.00" from="-25745425#2" to="-51008442#1"/>
    <trip id="380" depart="380.00" from="35069261#1" to="23036498#4"/>
    <trip id="381" depart="381.00" from="35393307#4" to="-27046429"/>
    <trip id="382" depart="382.00" from="137611777#11" to="68911264#0"/>
    <trip id="383" depart="383.00" from="-89697993#1" to="26821654#0"/>
    <trip id="384" depart="384.00" from="-22649994#1" to="90276559#0"/>
    <trip id="385" depart="385.00" from="22690383#0" to="-33711491#0"/>
    <trip id="386" depart="386.00" from="-23888368#0" to="137918303#0"/>
    <trip id="387" depart="387.00" from="13860630" to="-16086030#0"/>
    <trip id="388" depart="388.00" from="9527214#0" to="60861054#3"/>
    <trip id="389" depart="389.00" from="-96001133#1" to="-22338267#2"/>
    <trip id="390" depart="390.00" from="4542900" to="115028423"/>
    <trip id="391" depart="391.00" from="296677380#1" to="120824314#0"/>
    <trip id="392" depart="392.00" from="-37337306#1" to="4554180#6"/>
    <trip id="393" depart="393.00" from="91181871#0" to="-33995439#2"/>
    <trip id="394" depart="394.00" from="13847193#0" to="-60187241#8"/>
    <trip id="395" depart="395.00" from="67693745" to="120403566#2"/>
    <trip id="396" depart="396.00" from="510840991#0" to="49364112#1"/>
    <trip id="397" depart="397.00" from="-391417045#3" to="41436656#1"/>
    <trip id="398" depart="398.00" from="-70948995#1" to="70509168#1"/>
    <trip id="399" depart="399.00" from="120403562#0" to="44362686#0"/>
    <trip id="400" depart="400.00" from="-41250577#1" to="-42802027#1"/>
    <trip id="401" depart="401.00" from="201105323#3" to="97051117#2"/>
    <trip id="402" depart="402.00" from="10804430#0" to="-23556069"/>
    <trip id="403" depart="403.00" from="132817734#0" to="-49234475#0"/>
    <trip id="404" depart="404.00" from="13860618#1" to="135648751#4"/>
    <trip id="405" depart="405.00" from="-923197950" to="-4550191#1"/>
    <trip id="406" depart="406.00" from="-25789836" to="26745246"/>
    <trip id="407" depart="407.00" from="160126306#0" to="-33577243#0"/>
    <trip id="408" depart="408.00" from="37073989" to="-121166133#3"/>
    <trip id="409" depart="409.00" from="33751151#1" to="27616478"/>
    <trip id="410" depart="410.00" from="438595563#0" to="-60270052"/>
    <trip id="411" depart="411.00" from="24519017" to="44362697#5"/>
    <trip id="412" depart="412.00" from="91181883#0" to="112076000"/>
    <trip id="413" depart="413.00" from="-120920675#2" to="117624045#0"/>
    <trip id="414" depart="414.00" from="206896937#9" to="49732270#0"/>
    <trip id="415" depart="415.00" from="50236808#1" to="-89698031#1"/>
    <trip id="416" depart="416.00" from="123723624" to="-938155761#1"/>