<routes>
    <route id="121541674_15808517.qPKW" edges="121541674 -13860645#3 -32057955#2 32057975#3 -363743699#2 363743700#0 363743700#2 363743700#3 363743700#4 32354196 32354188#0 60419918 32352792-AddedOnRampEdge 32352792 844804861 389449566 808935233#0 808935233#0-AddedOffRampEdge 808935233#2 15824228#0 15824228#1 30128109 30128111 28797421#0 115654390#0 42441177#0 42441177#1 42441177#2 54725892 28797424#0 54912198#0 654706060#0 654706060#1 412968049#0 412968049#3 654706051 654706045#0 654706045#1 412968012#0 27640872 136304630#1 136304630#3 136304630#4 -102152277 -24539935#4 -24539935#3 -24539935#0 22338359#0 102152263#0 -136300506#4 -136300506#2 -136300506#0 26821542#0 26821542#1 26821542#2 917987255 -122149521 122149522 136300490#0 136300490#1 -89698042#7 -89698042#6 -89698042#5 -89698042#3 -859660024#3 -44362686#2 -466365885#10 23865909#0 23865909#1 23865909#2 44362697#0 44362697#5 -26432030#3 -26432030#2 -22776221 -68911255 -22674878#4 -22674878#3 -22416476#4 -22416476#3 -22416476#2 -22416476#1 -22416296#3 -22416296#2 -22416296#1 -22416296#0 -22416288#3 -10270080 -10267131#2 10267125#2 10267125#3 10267125#4 184905268 -41881467 -41432535#1 10267102#1 10267345 27639437#0 -194817304 -170222308 5712267#0 -49619078#1 49619057 49619097#5 49619061 -49619064#2 -49619064#1 -49619064#0 70948995#0 70948809 -70948807#2 5712267#12 -176488079 -26821899 -26821897#1 -26821897#0 -25836051#2 -25836051#1 -25836051#0 -41474831#1 -27730601 -41474838#3 -41474838#0 -24652172#1 -24652172#0 -27012163#8 -41436531#2 -41436531#1 -60420200#1 -60420200#0 -129215673 -41436654#1 4686601#0 4686601#4 4686598#2 4686598#3 26822128#0 -26551094#1 26822127#0 26822127#4 27012113#2 27012115#3 41436664#0 -41495388 -41495389#2 -41495389#1 -41495382 -25537916 25653231#2 25653231#3 -26822126#1 -26822125 10231352#4 509722712#0 137611767#1 137611767#3 137611767#4 782024795 27616490#0 27616490#2 355439990#0 355439990#1 24628557 233572670 4597298#0 4597298#1 410929561#0 410929562 4597296 354418505 41464786#0 41464786#2 41464786#3 4597297#5 4597297#6 4597297#6-AddedOffRampEdge 137491596 137491585#0 22724654 23943652 23943722 -123937319 -41497040#6 -23943330#5 -23950067 -41497040#0 -137491593#1 23815401 -23801184#0 23801181#0 41496789 41496788#0 96897360 123723624 123723623#1 23172901#0 22885426#0 -22883401#1 -22885440#1 22885401#2 22963000#4 -22652394 22963002#2 22963009 -22883485#1 22650787#1 22652398#0 -21990971#10 -21990971#9 -21990971#7 -21990971#5 -21990971#2 -21990971#1 -21990971#0 -59434338 -835458075 -21990974#1 -21990974#0 -59434341#3 -59434341#1 -44289589 -96897367#3 -96897367#1 -96897367#0 -96897359#4 -96897359#2 -96897359#1 -835458076 -835458077 96897376#0 96897376#2 96897376#4 96897376#5 96897376#6 96897385#1 -30846851#1 -30846851#0 -201105327#2 -201105327#0 835458090 835458089#0 -835458089#1 -835458090 -123082582#8 -920069611#0 -44147807#3 -44147807#1 22731871#0 22731871#1 22731871#2 -23044758#1 -23044758#0 -22945377#7 -22945377#2 -123082547 -920216668#2 871842219#0 4481900#0 4481900#1 4481900#4 4481900#5 4481900#8 4550178#4 836897979 36933604#0 36933604#5 17365773#0 17365908#0 17365908#2 17365908#4 17366015#0 -43905364#1 -15091131#2 25564503#0 -4571205#4 -4571205#3 -4571205#1 -4571205#0 -839614189#0 14888870#0 -4550179#0 835871375 43905363#0 23016256#0 -14888137#1 -4520756#1 -4520756#0 -835871367 835871365 4481903#0 14360987#0 836332232#0 37408227#0 30416941 30417784#0 839599272 39244315#0 39244315#1 30417141#0 463440812#0 4479884#0 4479884#2 44139261#0 41886386 4541816#0 101453751#0 101453751#1 101453751#2 41432520 745358395#0 745358395#1 93671301#0 52856856#1 408547331#0 9473193#0 723613339#0 23613197#0 23613197#1 131823444 740982177 889996860 889996859 740982175 837587668#0 837587667#0 -13449572#2 15808517"/>
    <route id="12495691#0_12495996#1.qPKW" edges="12495691#0 12495691#0-AddedOffRampEdge 11490890 11490929 11490920#0 11261593#7 11261593#8 11261593#9 11261033#0 11261033#1 11261033#2 135646513 11261264#2 11261264#3 11261264#4 11261169 15407180#0 15407180#0-AddedOffRampEdge 60861063 11261264#6 11261264#7 11261264#8 95933395#0 510525464#0 510525464#3 510525464#5 24813328#0 24813328#2 24652722#3 24652722#0 24652723#0 24652723#1 24652725#0 24652725#1 24652725#2 24652725#3 24652726 35693374 -35560497 -35560478#1 -33556254#3 -33556254#0 -35560623#2 -35560623#1 -35560623#0 -18410101 -218486684#2 -218486684#1 441125026 11261593#4 11261593#5 11261593#7 12476047#0 515896383 776740125#1 776740125#2 776740125#3 14461037 13715489#3 13715489#4 13715489#5 13860534 51101750#0 51101750#2 38457326 13860537#2 13860537#4 38525316 38525317#0 38525317#1 26608398#0 26608398#1 26608398#2 26608398#3 -26757565#4 26608394 -26608396#0 -26734369#0 -20433622#4 20433461#0 20433461#1 20433461#2 20433461#3 280443232#6 37519500#0 37519500#1 37519500#2 37519500#3 37519500#4 26608285#0 26608285#2 351677029#0 -27454574#1 -27454574#0 -13860508#1 -13860508#0 37936331#1 37936331#2 -37936329 -27437328 -27454577#1 27437326#5 14461464#4 36876882#0 -27625052 27625044#3 36909567 -27663212#10 -27663212#6 -27663212#5 -27663212#4 -27663212#2 -27663212#1 -591025829#0 12495996#1"/>
    <route id="13715242#0_12495996#1.qPKW" edges="13715242#0 13715242#3 12477515#3 12477515#4 12477515#5 13715293 13715345#4 13715345#5 13715345#6 13715426 13715489#5 13715489#6 13715489#1 13715577 776740126#0 31253943#0 26656364#5 26656364#6 26656364#7 218492220#0 -27663219 218492219#1 27663218#4 27663218#5 27663218#6 -27663221#10 -27663221#7 365329909 365329910 31128311#4 31128316 -30195769#6 -30195769#4 -47584688#4 -413412763 -482317173 -25728397#1 25331880#0 25331880#1 25331880#2 -25691315#0 -47574001#0 -25382057#12 -25382057#11 -25382057#10 -25382057#9 -25382057#8 -25382057#7 -25382057#6 -25382057#5 -25382057#2 413412766#0 -51499215 52107915#0 51503076 -49577079#1 -52107914#0 -49572367#8 -49572367#6 -49572367#5 -49572367#4 -49572367#3 53265048#0 53845802 53353978#0 24998662#1 24998662#3 -55358659#6 -55358659#5 -55358659#2 -55358659#1 53845200#0 54808032#0 54808032#1 54808033 54808025#0 54808025#1 -54808029#1 54808023#1 54808023#2 54808024#0 24381985#2 24381985#3 24381985#4 24381985#5 24381985#6 24998666#0 24998666#1 79585906 -28797169#1 -28797169#0 -136415319#3 -136415319#2 55481711#0 96573754 -25382293#0 -25164538#5 -25164538#4 -25164538#1 795213578#0 23128894#0 96702174#0 96702174#3 96702174#4 217007043 -96556318#1 217007042#0 -23128894#1 -795213578#1 25164538#0 25164538#2 25164538#5 25382293#0 25382293#1 136415319#0 136415319#1 -55481710#1 -30605630#1 -23862563#3 -23862563#2 42751406 15514899#5 15514899#7 54680915#0 54680915#1 54680915#4 55358659#0 55358659#1 55358659#2 55358659#3 55358659#6 53845206 54844451#0 54844451#2 49572367#0 -53203490#1 -53351441#1 -53351441#0 -53353984#4 -53353984#2 -53353984#0 -52107915#1 51499215 49581899#0 49581899#2 49581899#4 49581899#7 49581899#9 49581899#10 25331881#0 -47908117#1 -47908115#1 -47908115#0 25691312#3 47574001#0 47574001#1 413412765 30195828#0 47584688#0 30195769#1 30195769#5 31128315 31128311#1 365329911 -365329909 27663221#0 27663221#8 27663218#0 27663218#1 27663218#2 218492219#0 27663219 218492220#1 26656364#1 26656364#2 26656364#3 31253930#0 776740126#2 776740125#0 776740125#1 12477333#0 12476257#7 12476257#0 12476257#1 12477436 36910353#0 36910353#1 36910353#2 36910353#5 36910353#7 36910353#10 30662599 12477515#1 12495996#0 12495996#1"/>
    <route id="13715242#0_100652423.qPKW" edges="13715242#0 36848143#2 27663212#0 27663212#2 -36908841 -27663227#3 -27663227#2 -36876883#4 -36876883#1 -36876883#0 -36876882#5 -36876882#3 -36876882#1 -36876882#0 14461464#5 14461464#6 -27470763 27470764#1 27470764#2 -27437325#2 -27437325#1 -27437325#0 27663225#0 27663225#1 -14461464#0 14461459 12477515#5 12477515#6 12477515#7 30662591 -36910353#11 -26608280#7 38535753#3 38535753#4 -26608279#6 -36910353#0 36910352 12476257#3 12476257#4 12476257#5 27919868#0 776740125#3 12476144 776740126#0 776740126#1 776740126#2 11261643#0 11261646#0 11261593#9 11261593#10 11261593#0 11261593#1 11261593#2 13638095 218486684#0 218486684#2 218486684#3 -33549995#2 -24813428#1 -24813428#0 35560623#1 35560623#2 33556254#0 -24957025#6 -24957025#5 -24957025#4 -24957025#3 33556359#0 33556359#1 35772128#1 24829966#0 24829966#1 -510525464#11 -510525464#10 -510525464#9 -510525464#6 -510525464#4 -510525464#2 95933394#0 11261264#0 11261264#1 11261264#2 218473175#0 510525463#0 11261264#4 11261264#5 11261264#6 25748150 60861137#0 -60861056#5 -25709574#1 -47573307#1 -47573307#0 -25691312#0 -49581899#13 -49581899#12 -49581899#10 -49581899#9 -49581899#8 -49581899#6 -49581899#3 -49581899#1 -52107914#8 -52107914#7 -52107914#6 -52107914#4 -52107914#3 -52107914#2 49577079#0 49577079#2 53353984#3 53351441#0 53351441#1 53351441#2 53351441#3 53351440#0 25382179#0 25382179#4 25382179#7 -54844451#1 -53845206 53837509#0 54680452 -55358659#5 -55358659#2 -55358659#1 -55358659#0 -54680915#4 -54680915#3 -54680915#0 15514899#8 54682144 -878979358#1 -54844459 23862560 23862559#4 23862561 23862561-AddedOffRampEdge 24998663 31984273#7 31984273#11 31984273#12 100652437 100652429#0 100652429#3 100652424 76403797#2 37616705 -30044133 -96021275#2 -96556318#1 217007042#0 -23128894#1 -29467545#4 25382295 100652423"/>
    <route id="137929561_156504197#1.qPKW" edges="137929561 137929561-AddedOffRampEdge 137929562 88896549-AddedOnRampEdge 88896549 207223844 157888423#3 4597369#0 28998801-AddedOnRampEdge 28998801 28998801-AddedOffRampEdge 11362535 957264348#0 957264345 60861060#0 32339296 4597366-AddedOnRampEdge 4597366 28998798-AddedOnRampEdge 28998798 28998798-AddedOffRampEdge 28998800 27640930-AddedOnRampEdge 27640930 27640930-AddedOffRampEdge 745196500 745196507-AddedOnRampEdge 745196507 135849151#1 22416555-AddedOnRampEdge 22416555 22416555-AddedOffRampEdge 22724507#1 2954656#1-AddedOnRampEdge 2954656#1 2954656#1-AddedOffRampEdge 135849818#1 23640046#0-AddedOnRampEdge 23640046#0 23640046#0-AddedOffRampEdge 28092385 26625885#1-AddedOnRampEdge 26625885#1 230991090 678522745 2415229 474518195#1 474518195#4 474518195#4-AddedOffRampEdge 156504197#0 156504197#1-AddedOnRampEdge 156504197#1"/>
    <route id="14360316#0_32877932#0.qPKW" edges="14360316#0 -831851224#2 -23035876#1 -158732035#5 -119617011#3 -119617011#2 -23107918#1 22885405#4 22885405#6 -22963000#4 -22652390 -22963002#0 -22963001 -123699340#1 -123699340#0 -123699324 -123723623#0 23695657 123723627 23695651#3 -23707654 -23801181#1 23801184#0 23801184#1 41497046#1 23943551 23943272 41497040#1 41497040#4 41497040#5 41497040#6 123937319 41497042 -22724654 -137491585#1 -137491586 41464792#0 678514439#0 678514439#1 4597295#0 355438287#0 24628555#0 24628555#5 27616491#0 27616491#1 27616491#2 27616491#3 175877885 175877886#0 175877891#0 175877891#2 175877891#4 135481701#0 41467056 23612239 27616482#0 41467051#0 41467051#1-AddedOnRampEdge 41467051#1 27616478 139240133 156508948 43696211 -962830882 4542899#0 4542899#1 4542900 678514431 678514437#0 678514437#1 4542897 678514429 678514433 -24058373#6 -32464864#2 -75722087 -41494185#14 -41494185#13 -41494185#12 -41494185#9 -41494185#8 -41494185#6 -41494185#5 -41494185#2 -41494185#0 -156678099#4 34261591#0 34261591#2 -34261594#2 34261553#4 -32877933#1 -25703175#7 -33434617#2 33434173#0 33434173#2 69990901 69990904#5 69990908 -32877929#10 -32877929#8 32877932#0"/>
    <route id="14360316#0_156504197#1.qPKW" edges="14360316#0 936407793#0 936407779#0 936407787#0 5364660#0 5364660#1 5364660#3 139240814 4597297#0 -24044936#0 -24044938#1 -24044938#0 -24044913#1 -24044913#0 -10305517#0 -132683879#6 24044912#0 24044912#1 24044938#1 24044936#0 4597297#2 -23965739#1 -23965739#0 -23965732#1 23943769#4 23943769#5 23943769#6 23943769#7 -123882108#1 23943450#0 -123845519#1 -23943447#1 123882110#1 123882110#2 23950070#0 23950070#1 -41497040#4 -41497040#3 23950067 -23943330#3 -23943330#1 -23943330#0 -23943267#0 779824791 -23801182 -23801178#1 -9473489#0 131825866#0 131825866#1 -9473487#9 -9473487#8 -22962994#5 -22962994#4 -96897368#3 -96897368#1 -96897368#0 -123723622 -96897382#4 -96897377#0 -9473485#6 23707616#0 -23707613 -9473485#3 -9473485#2 -9473485#1 -23695345#2 -23695345#1 23695341#0 23695341#1 -23695340#1 -22883372#1 23695328#0 23695328#1 -96897376#7 -96897376#5 22677122 22677120#1 22677120#2 22677120#4 44289585#0 96897359#2 96897359#3 96897367#0 96897367#1 11256692#0 22727746#0 11256718#3 123699314#1 59434342#0 11354739 22564929 -59434336#2 10755322#0 10755322#1 10755322#2 4697881#0 5666756#0 5666756#1 5666758#0 41883675 -15238951#1 12504949#1 -123699325#0 14359993#0 14359993#1 14359993#2 -21990971#11 -22652398#2 22650787#2 22650787#3 22650787#4 22650146#0 23107884 22650788#1 13451018#0 835377827 835377825 -831851222#1 -22752300#1 831851225#0 842131938 153412548 889996857 23554170#0 50900882 15806977 26432734#0 737655474#0 737655498 52856170#0 41886247#2 88757409#2 745534429 26433267#0 26433267#0-AddedOffRampEdge 26433273#0 745534453 837617208 837617210 22733437 837617204 165842350#0 837596447 11260545 11356367#2 27640293 460047568#0 460047568#3 60419920#0 60419920#1 846740177#0 15215845#0 136614330 957264366 7817455 837596443 837596433 837617210 22733437 837617204 165842350#0 5712257 837596446 132577517#0 123934090#0 -23160026#4 -30091060#1 30130942 9527812#0 137491583 -137491583 -9527812#2 -30130942 -129749141#3 -26624955#2 936407778 936407783 936407787#0 5364660#0 5364660#1 5364660#3 139240814 54034460#0 54034460#1 21553987 132683878 10305104#0 10305104#1 23152232#1 23152234 23612737#1 785839418 24269951 -24376313 382503059#0 -24269954#13 -24269954#10 -24269954#9 25816244#0 25816244#1 25816244#2 26415416#0 26415405#0 -24272154#1 -24272154#0 26433296#1 -24376045#4 -26415765#1 25816246#1 24465941#3 24269954#0 24269954#2 -45379038 45392335#1 24269954#5 45379105#0 -41474514#5 10633407#0 24605469 24605468 41530029#7 -49876872#4 48981698 -48981699#0 296677380#1 296677378 170091747 41474762#0 296677379#1 10305177#0 10305177#1 745421451 10305212#0 10305212#0-AddedOffRampEdge 10305212#1 745421453 185171140 745421456#0 10305112 10305112-AddedOffRampEdge 41881469 41881469-AddedOffRampEdge 26415151#1 165782029#1-AddedOnRampEdge 165782029#1 745421458#0 745421458#1 745421458#3 745421457#0 4597219#0 4597219#1 4597219#3 40715824 -42872482 42872484 42872480#4 42872480#0 42872476 -23887428 42872470 23865910#4 23865910#5 23865910#6 42872472 -163606884 -658467502 42872463 42872464 28003963#4 28003963#5 42872458 -233381073 28003957#4 -397838610 -122258383#4 -122258383#0 -122258374#1 65336691#3 65336691#1 65336694#0 37720200#2 -37720198#1 37720197#2 37720197#3 -59652362#3 -59652362#2 -59652362#1 -74034477#14 -74034477#12 -74034477#10 -74034477#6 -74034477#5 -74034477#4 -118923813#2 -118923807 118923805#1 118923806#4 118923806#5 118923806#6 118923806#8 -219545690#1 -118915870#7 -118915870#5 -118915870#1 -118915870#0 -118915879#4 -118915879#3 -118915879#2 23036064#0 -118925070#3 -118915869#0 -113901678#1 -113901673 -26842218#5 60861135#6 23388847#5 23388847#9 23388847#15 -24416788#11 24416790#7 -70509130#10 -32209690#6 -32209690#5 -117885030#7 117883582#0 117883582#1 117883580#0 117885016 119767745#0 27639849#0 27639849#1 26527897#0 26527897#2 26527897#5 -33651094 -222696936#5 -222696936#4 -222696936#2 -222696936#0 -25722698#1 -25722698#0 25744920#0 25384719#0 25384719#1 25384719#3 33651100 161131237 25744946#0 -118713802#3 -118713799 -118713809#1 -118713810#4 -118713810#2 -133148270 33651083#3 -286004912#1 -162280059 -162280058 -25722897#3 -25722897#2 -25722897#1 -25722897#0 23036149#0 -49304091#2 -367823345 -27740566 -118713806#5 -118713807 -118713800#4 -95278939#4 95384568 -5667931#6 -5667933#2 -118713803#3 -117181959#2 -117181966#1 -423225853#0 49728588#0 49728588#3 30412444#1 30412444#2 30412444#3 118136445#0 118136445#1 118136445#2 -27075478#10 -27075478#5 -157868238#0 27740530 27740543#0 27740543#1 27740531 27740540#0 27740547 156504197#1-AddedOnRampEdge 156504197#1"/>
    <route id="14360316#0_117485991.qPKW" edges="14360316#0 936407793#0 936407779#0 936407787#0 5364660#0 5364660#1 5364660#3 139240814 4597297#0 -24044936#0 -24044938#1 -24044938#0 -24044913#1 -24044913#0 -10305517#0 10305517#0 24044913#0 -24628560#2 -24044932 24044938#1 24044936#0 4597297#2 4597297#4 23943769#1 23943769#2 23943769#3 23943769#4 23943769#5 23943769#6 23943769#7 -123882108#1 123882110#0 123882110#1 123882110#2 -23943318 24044994 123882110#5 -23943354#0 23695664#1 -23707653#1 23695651#1 23695651#2 -123723627 -23695657 -96897360 17364390#0 96897368#0 -23707632#4 22964007#0 30385781#0 -22962994#1 -22963165#1 30385611#1 30385611#2 9473486#3 9473486#0 -123699318#2 25789604#0 25789604#1 25789604#2 -10260001#3 25653236#0 -96904597#0 41523000 -137611774#1 -137611774#0 -123699323#3 -123699323#2 -123699323#1 -123699323#0 -25939691 4686565#0 4686565#4 28871873#0 28871873#3 28871873#4 4697613#1 28871871#0 28871871#1 159215112#1 159215112#2 159215112#3 159215112#5 49837488#0 49837489#0 51193721#2 51193721#3 45063955#0 23612822#0 23612822#1 51193719#2 51193719#4 51193719#5 27885884#0 -27326835 -97051117#1 -97051117#0 97051127#0 97051127#3 -97051122#0 -26551275 27615967#1 -43093736#8 -43093736#2 -43093736#1 -43093736#0 -43086360 -411021787#1 32877933#0 34261553#1 34261553#2 34261553#3 34261594#0 34261700#0 34261700#1 34261700#2 34261696 41494185#6 41494185#7 41494185#9 41494185#10 41494185#13 41494185#14 -115830881#8 -35069251#10 -35069251#7 -35069251#6 -35069251#5 -35069251#3 -35069251#1 37073988#0 -41830176#10 -41830176#9 -41830176#7 -41830176#3 -41830176#0 -24058372 23925355#2 -42798152#1 -42798149#1 -27562029 -119558332#5 -119558332#3 -686280066#1 5528270#0 157600007#2 678514436 10417843 678514424 10417842 678514423 678514419 5472801#0 678514415 678514414#0 678514414#1 5472978 678514418 678514410 678514408#0 678514408#1 678514408#2 25814194#0 27639303#0 157115293 157382223 157382220 157115290 157006384 5527089 49709132#0 136179457 -49709148#3 49709139 -104797147#4 -51779292#6 32447313 51779293 -162602683#1 109093224#0 109093225 -32447315#2 117329613#0 51779282#2 49709188#0 41880538#0 41880537#0 41880537#2 -117329611 41880537#4 51779283 -161652672#1 -41880541#4 -41880541#3 -41880541#2 -49709226#8 -111682622#8 -111682622#2 32447405 157012597#0 820201991 27484043#7 27484043#8 27484043#1 27484043#2 27484043#3 27484037 698946827 24829610#0 24829610#1 27640041 27640048#0 27640048#1 28288943#0 95278941#0 95278943#3 118713807 118713806#0 27740566 367823345 49304091#0 -23036149#1 25722897#0 25722897#1 25722897#2 25722897#3 25722833 162280059 33651082 -33651083#4 -33651083#2 -33651083#0 24829652#6 25744922#0 25744922#1 25722698#0 25722698#1 222696931 222696936#1 107755355 24540307#1 24540307#2 686262056#2 28469904 354419464 70509154#0 70509184 139314899 25959300 139314874#0 139314874#4 139314874#5 -25959301#9 -25959301#0 23388847#0 -96327566 -31762883#1 118915878#0 118915879#0 118915879#2 24811314#0 -118923278#1 -118923282#2 -118923282#0 33294351#1 118923279#0 -74025360#4 -74025360#3 -74025360#2 -74025360#1 25382498 16391463#0 16391463#1 16391463#2 25382499 42874141 42872454 42872459#2 42872447 584787007 42872465 28003963#2 28003964 -42872463 658467502 163606884 42872471 23865910#0 42872467#0 42872466 42872474#0 24539986#0 24539986#1 24539986#3 24539986#4 240266185#0 240266183#2 89711424 89711338#0 89711429 89711368 89711326#1 89711326#2 89744766#0 -70509166#1 89744757#0 -89711412#1 241496945#2 39486958#0 39486958#2 39486958#3 39486961#0 89711414 89711406#0 89711419#4 89711343#4 89711343#6 89711343#9 89711343#13 89711343#14 89711431#0 89711431#2 89711392 89711382#0 89711382#1 89711382#3 -136299642#4 -136299642#3 -136299642#1 -87809292 136299647#0 136299647#1 136299647#3 136299647#4 136299647#5 136299647#6 136299647#7 136299647#8 136299645#1 26337170#1 26337170#2 28658690#0 317737013 70509118#1 70509163 28671685 28671696 -28671696 -28671685 205091775 70509118#3 100117906 -30048997#4 -87809476#1 -136299647#8 -136299647#7 -87809306 -89711349#1 -89711349#0 87817333#1 87817333#2 87817333#4 87817282 87817277#1 87817306#2 87817306#3 87817333#14 89711333#0 89711333#3 87821785#0 87821785#2 87821785#3 87817185#0 87817185#1 87817185#2 87817185#3 87817185#5 87817185#6 -87817231#1 -87817231#0 25653453#0 123217802 25653453#2 -136415326#10 -136415326#4 -136415326#3 -136415326#1 -24539984#4 -24539984#3 -24539984#2 -100025444#2 -100025444#1 -100025444#0 -100025476#1 -26821542#0 136300506#0 136300506#2 136300506#3 934271210 102152261 734791605#0 22338354#0 22338354#1 934271212#3 934271212#4 60419932 60419941 70509176 122147359 122147357 122147385#0 382318956#1 58744053 122147364 58744054 26745251 31013632 58744061 27638217 27886075 745196504 200904070 745196501#0 200904067 -26745246 -27740930 27740929#0 23036342 382318964#3 -23036345#1 23036344#0 -91181877#2 -24758031#7 -23639880 10633412#0 687205022 687205023 687205024#0 139239504#0 687205026 7817474#1 7817474#4 7817474#5 687197633 7817466#0 7817466#1 687212723 7817467#2 7817467#3 7817467#4 687212721 923197984 157272240 697829566 160126328 697829567 697829568 697829564 7817473#0 7817471 25745241#0 160126317#0 160126317#1 70330623#1 160119621#0 15242060#0 15242060#3 15242060#4 27639695 160119624-AddedOnRampEdge 160119624 70330628#1 70330628#2 70330627#1 70330627#2 70330627#3 15242066 26415154#1-AddedOnRampEdge 26415154#1 26415154#2 41881468#0-AddedOnRampEdge 41881468#0 10305140#0 10305140#1 10305140#2 10305238#0 96570803#1 96570803#2 96570803#3-AddedOnRampEdge 96570803#3 96570803#3-AddedOffRampEdge 745421452 296677411#1 15242077 138628392#0 745421448 15242111#0 60187233 60187191 138628393 745421446 15242110 138628394 7817459#0 7817477 40712921 28246927 101906728 101906721 40802817 7817476#6 7817476#1 7817476#2 26431945 26431843#0 -24936121#1 -24936121#0 24519019#7 -44362716 -40712913#1 -23036498#7 -23036498#6 -23036498#3 -23036497#1 -23036497#0 -11090991#0 -616643919#1 -23129033#4 -91082527 -115654398#2 -115654392#1 -115654392#0 -22885226#1 22598862#0 44167801 44167802#0 44167802#1 44167802#3 44167802#4 44167802#5 22752378#0 -13860618#1 -13860618#0 22752375#1 22338294#0 23035068#0 -22649994#1 22649997#2 22649997#3 22649997#4 22649997#5 44167796#0 44167796#1 44167796#2 44167796#3 13860630 846740181#0 925611364#0 925611364#1 846740182 846740184#0 846740184#2 9527214#0 44167800#0 44167800#2 -9527212#5 -9527212#1 -9527212#0 24936314#0 -22663183 -22751207#1 -22752522#3 -22752522#2 -22752522#1 -44167802#7 -44167802#6 -44167802#5 -44167802#4 22338288#2 13860618#4 13860618#5 13860618#6 -44167803#2 -13860628 -22598862#0 22885226#0 115654392#0 115654392#1 115654398#0 -22598863 -23129033#0 -298418827#0 -23129035 -135849117#2 -135849117#1 -135849117#0 -60419924#0 -100025456 -60419935 60419926#0 60419926#3 60419926#4 60419926#6 -60419932 -934271212#5 -934271212#3 -934271212#1 -934271212#0 -934271210 -945460269#2 102152271 -22338360#10 -22338360#8 -22338360#7 -22338360#6 -22338360#4 -22338360#3 -22338360#1 -22338360#0 -136415325#1 24539984#0 24539984#1 24539984#3 24539984#4 27664302#0 27664302#1 33783490#0 33783490#1 136415340#0 136415340#1 136415326#4 136415326#5 87821552#0 87821552#1 123217801 102681874#9 102681874#10 102681874#11 102681874#12 102681874#13 102681874#14 102681874#17 102681874#19 89711362 -89711431#2 -202595556 25033975#4 25033975#10 97099867#0 100025443#0 100025443#1 70509183#4 70509183#1 70509150 26337170#2 26337170#0 -136299645#2 87809476#0 30048997#3 205091774#1 70509118#5 70509118#6 70509118#1 70509118#2 70509118#3 100117906 317737012#0 -89711376#1 -70509178#10 -70509178#8 -70509178#4 -70509178#1 54828189 23036348#0 23036348#1 23036348#2 70509116 70509148#0 70509148#1 -136300498#1 -136300498#0 -136300493#3 -136300493#2 -136300493#1 -136300493#0 -87821699#2 -87821699#1 -87821699#0 66087470#15 66087472#0 66087472#1 66087472#2 66087472#3 66087472#4 66087472#5 -87817333#14 -87817306#3 -87817306#2 -87817306#1 -87817306#0 -87817333#3 -87817333#1 89711349#0 89711349#1 87809306 -136299647#6 -136299647#5 -136299647#4 -136299647#3 -136299647#2 -136299647#0 87809292 136299642#0 136299642#3 136299642#4 -89711382#3 -89711382#2 25033975#0 202595556 -89711431#1 24539985 102681867#0 102681874#0 102681874#3 102681874#5 102681874#7 -123217801 -123217785#8 -123217785#7 -70509119#3 89711385#0 240266184#1 89711326#0 89711425#1 -89711354#1 -89711316#1 89711370#1 28003960#5 28003959 165782059 165782060#0 28003957#3 28003958 42872457#0 28003963#0 42872456 -163607112 42872462 42872459#4 42872459#0 42872451 -42874141 42874142 16391463#4 42874138 74025360#0 74025360#2 74025360#3 74025360#4 74034482 74034488#0 74034488#2 74034488#3 74034488#5 74034477#0 74034477#1 118923803#0 122258381#0 122258381#1 -118923813#1 -118923801#1 -121495097#1 121495096 121495331#3 121495331#4 -118923805#4 -118923805#0 74034477#5 74034477#6 -118923810#2 -118923810#1 -118923810#0 -122258372#1 -59652361 -74034470#2 -74034470#0 -65336699#2 -65336699#0 -25382500#0 59652362#0 59652362#2 -118915873#5 -118915873#4 -118915873#3 -118925073 -118915869#3 -118915869#1 118925070#0 23036064#1 118915876#0 -23388847#0 25959301#0 25959301#1 -139314874#5 -139314874#4 -139314874#3 -25959300 -107731793#4 -70509184 -686262051 -354419468#9 -28469904 -686262056#6 -686262056#1 -24540305#1 -24540305#0 33651094 -340768038#0 -26527897#4 -26527897#1 -27639849#2 -27639849#0 -119767745#4 -55045843#2 -364259328#2 -364259328#0 -55045849 206896937#9 37341890#0 37341890#4 37074027#0 37074027#1 37074058#0 411024546 41873273 40716550#0 37341911 41463584#0 41463584#1 41494184 35429000#0 41494183#0 33425215#0 33434563#1 33434563#5 33434563#7 33434617#0 25703175#5 25703175#8 43086367 25703167 43093736#1 43093736#2 43093736#3 27615967#2 27615967#3 97051142 97051139#0 -42802024#7 97051122#1 26583563#0 26583563#3 26583563#10 26583563#11 26583563#12 26583563#16 97051139#11 31553231 41476614#0 31553230#0 31553230#1 -31553223#3 -31553223#1 -31553223#0 137611770#5 137611770#8 411021781 43585865 25384716#1 25384716#2 25384717 411021770 27616421 26415297 156508941#2 136180645 156508927#0 156508927#1 156508927#2 156508927#3 25674464#1 25674464#2 25674464#3 4542909#0 474514216#1 26745406 139239933 156508926 4597300 23612350 137611782#0 27616480 23612325 41467048 135481700#0 135481700#2 135481700#3 135481700#4 175877894#0 175877888#0 175877888#1 175877884#0 -125332642#3 -125332642#0 -29047130 5530782 125492786#1 125492786#2 125492787 397593464 -4697613#2 -28871873#5 -27947412#3 -27947412#2 -123518666#1 -123518666#0 -28760981#2 -44147801#8 -44147801#5 -28760978#4 -44147815 -4686563#2 22945334#0 4686515#0 4686515#1 4686515#2 920069611#0 920069611#1 41883007#0 10297766#0 10297766#1 22905826#0 22905826#1 -96897376#1 -123433442#0 -835458078 10683955 836332267 4697663 -11257026#2 -11257026#1 -4542913#3 -11256692#2 -11256692#0 96897367#2 44289589 59434341#0 59434341#2 21990974#0 21990974#1 835458075 59434338 21990971#0 21990971#1 21990971#2 21990971#3 21990971#6 21990971#8 21990971#10 21990971#11 123699343#0 123699343#1 -22650146#2 -22650146#1 -22650787#4 -22650787#3 -22650787#2 -22650787#1 -22650787#0 22690353#2 24824426#0 24824426#1 22885355 -26172577#0 -44289588 -22650072#5 -22650072#3 -22650072#1 44289586#0 44289586#1 22883372#0 22883372#1 23695340#1 23695340#2 30146664 123518664#1 9473485#0 9473485#1 9473485#2 9473485#3 23707613 23707616#1 23707616#2 96897366 123699318#1 9473486#1 9473486#2 -30385611#2 -30385611#1 -30385611#0 30385631 22962988#0 22962988#2 30386004 -96897368#4 22962994#4 30386009#1 30386009#2 131825866#1 131825866#2 131825866#3 -41497041#3 -41497041#1 23943267#0 23943267#1 23943330#3 23943330#4 23950068 123937320#1 -23950070#0 -123882110#2 -123882110#1 -123882110#0 123882108#0 -23943769#7 -23943769#6 -23943769#5 -23943769#4 -23943769#3 -23943769#2 -23943769#1 41464786#4 -24044936#0 -24044938#1 24044932 24628560#2 24044913#1 -24044912#0 -132683879#5 -132683879#4 -132683879#2 -132683879#1 -5712262 -139240878 -96570835#1 -510840996#1 -510840992#0 -96570823#1 -841049835#2 -841049835#0 -37090837#2 11359644#0 7817454 124183463#0 451856035 123934089#0 27640293 846740179 158827830#0 60419922#0 60419922#1 808935232#0 846740190#0 363743699#0 32057975#1 32057975#2 32057955#0 13860645#0 117485991"/>