<additional>
    <flow id="-10160480#6_-5608516#2.qPKW" departSpeed="max" departPos="last" departLane="best" route="-10160480#6_-5608516#2.qPKW" number="1" begin="0" end="3600"/>
    <flow id="-10160480#6_23902803#4.qPKW" departSpeed="max" departPos="last" departLane="best" route="-10160480#6_23902803#4.qPKW" number="1" begin="0" end="3600"/>
    <flow id="-10160480#6_165782029#1-AddedOnRampEdge.qPKW" departSpeed="max" departPos="last" departLane="best" route="-10160480#6_165782029#1-AddedOnRampEdge.qPKW" number="1" begin="0" end="3600"/>
    <flow id="-10231352#3_60187191.qPKW" departSpeed="max" departPos="last" departLane="best" route="-10231352#3_60187191.qPKW" number="2" begin="0" end="3600"/>
    <flow id="-10231352#3_-59652360#0.qPKW" departSpeed="max" departPos="last" departLane="best" route="-10231352#3_-59652360#0.qPKW" number="3" begin="0" end="3600"/>
    <flow id="-10231352#3_-59652360#0.1.qPKW" departSpeed="max" departPos="last" departLane="best" route="-10231352#3_-59652360#0.1.qPKW" number="3" begin="0" end="3600"/>
    <flow id="-10231352#3_-59652360#0.2.qPKW" departSpeed="max" departPos="last" departLane="best" route="-10231352#3_-59652360#0.2.qPKW" number="2" begin="0" end="3600"/>
    <flow id="-10231352#3_60187191.1.qPKW" departSpeed="max" departPos="last" departLane="best" route="-10231352#3_60187191.1.qPKW" number="1" begin="0" end="3600"/>
    <flow id="-10231352#3_-59652360#0.3.qPKW" departSpeed="max" departPos="last" departLane="best" route="-10231352#3_-59652360#0.3.qPKW" number="4" begin="0" end="3600"/>
    <flow id="-10231352#3_-59652360#0.4.qPKW" departSpeed="max" departPos="last" departLane="best" route="-10231352#3_-59652360#0.4.qPKW" number="2" begin="0" end="3600"/>
    <flow id="-10231352#3_-59652360#0.5.qPKW" departSpeed="max" departPos="last" departLane="best" route="-10231352#3_-59652360#0.5.qPKW" number="6" begin="0" end="3600"/>
    <flow id="-10231352#3_60187191.2.qPKW" departSpeed="max" departPos="last" departLane="best" route="-10231352#3_60187191.2.qPKW" number="1" begin="0" end="3600"/>
    <flow id="-10231352#3_60187191.3.qPKW" departSpeed="max" departPos="last" departLane="best" route="-10231352#3_60187191.3.qPKW" number="2" begin="0" end="3600"/>
    <flow id="-10231352#3_-59652360#0.6.qPKW" departSpeed="max" departPos="last" departLane="best" route="-10231352#3_-59652360#0.6.qPKW" number="2" begin="0" end="3600"/>
    <flow id="-10231352#3_-59652360#0.7.qPKW" departSpeed="max" departPos="last" departLane="best" route="-10231352#3_-59652360#0.7.qPKW" number="1" begin="0" end="3600"/>
    <flow id="-10231352#3_59652360#0.qPKW" departSpeed="max" departPos="last" departLane="best" route="-10231352#3_59652360#0.qPKW" number="78" begin="0" end="3600"/>
    <flow id="-10231352#3_-59652360#0.8.qPKW" departSpeed="max" departPos="last" departLane="best" route="-10231352#3_-59652360#0.8.qPKW" number="73" begin="0" end="3600"/>
    <flow id="-10231352#3_-129215666#3.qPKW" departSpeed="max" departPos="last" departLane="best" route="-10231352#3_-129215666#3.qPKW" number="10" begin="0" end="3600"/>
    <flow id="-10231352#3_103598245#1.qPKW" departSpeed="max" departPos="last" departLane="best" route="-10231352#3_103598245#1.qPKW" number="19" begin="0" end="3600"/>
    <flow id="-10231352#3_-194817316.qPKW" departSpeed="max" departPos="last" departLane="best" route="-10231352#3_-194817316.qPKW" number="11" begin="0" end="3600"/>
    <flow id="-10231352#3_10267102#1.qPKW" departSpeed="max" departPos="last" departLane="best" route="-10231352#3_10267102#1.qPKW" number="119" begin="0" end="3600"/>
    <flow id="-10231352#3_-194817316.1.qPKW" departSpeed="max" departPos="last" departLane="best" route="-10231352#3_-194817316.1.qPKW" number="1" begin="0" end="3600"/>
    <flow id="-10231352#3_129215666#3.qPKW" departSpeed="max" departPos="last" departLane="best" route="-10231352#3_129215666#3.qPKW" number="9" begin="0" end="3600"/>
    <flow id="-10231352#3_-22674878#0.qPKW" departSpeed="max" departPos="last" departLane="best" route="-10231352#3_-22674878#0.qPKW" number="3" begin="0" end="3600"/>
    <flow id="-10231352#3_60187191.4.qPKW" departSpeed="max" departPos="last" departLane="best" route="-10231352#3_60187191.4.qPKW" number="6" begin="0" end="3600"/>
    <flow id="-10231352#3_60187191.5.qPKW" departSpeed="max" departPos="last" departLane="best" route="-10231352#3_60187191.5.qPKW" number="3" begin="0" end="3600"/>
    <flow id="-10231352#3_103598245#1.1.qPKW" departSpeed="max" departPos="last" departLane="best" route="-10231352#3_103598245#1.1.qPKW" number="5" begin="0" end="3600"/>
    <flow id="-123699318#0_-23902803#4.qPKW" departSpeed="max" departPos="last" departLane="best" route="-123699318#0_-23902803#4.qPKW" number="1" begin="0" end="3600"/>
    <flow id="-13451018#1_136230794#1.qPKW" departSpeed="max" departPos="last" departLane="best" route="-13451018#1_136230794#1.qPKW" number="456" begin="0" end="3600"/>
    <flow id="-169502395#0_165782029#1-AddedOnRampEdge.qPKW" departSpeed="max" departPos="last" departLane="best" route="-169502395#0_165782029#1-AddedOnRampEdge.qPKW" number="2" begin="0" end="3600"/>
    <flow id="-169502395#0_5608516#0.qPKW" departSpeed="max" departPos="last" departLane="best" route="-169502395#0_5608516#0.qPKW" number="1" begin="0" end="3600"/>
    <flow id="-169502395#0_5608516#0.1.qPKW" departSpeed="max" departPos="last" departLane="best" route="-169502395#0_5608516#0.1.qPKW" number="1" begin="0" end="3600"/>
    <flow id="-169502395#0_-5608516#2.qPKW" departSpeed="max" departPos="last" departLane="best" route="-169502395#0_-5608516#2.qPKW" number="1" begin="0" end="3600"/>
    <flow id="-169502395#0_5608516#0.2.qPKW" departSpeed="max" departPos="last" departLane="best" route="-169502395#0_5608516#0.2.qPKW" number="2" begin="0" end="3600"/>
    <flow id="-169502395#0_23902803#4.qPKW" departSpeed="max" departPos="last" departLane="best" route="-169502395#0_23902803#4.qPKW" number="1" begin="0" end="3600"/>
    <flow id="-169502395#0_-5608516#2.1.qPKW" departSpeed="max" departPos="last" departLane="best" route="-169502395#0_-5608516#2.1.qPKW" number="1" begin="0" end="3600"/>
    <flow id="-169502395#0_23902803#4.1.qPKW" departSpeed="max" departPos="last" departLane="best" route="-169502395#0_23902803#4.1.qPKW" number="1" begin="0" end="3600"/>
    <flow id="-169502395#0_-35429002#1.qPKW" departSpeed="max" departPos="last" departLane="best" route="-169502395#0_-35429002#1.qPKW" number="1" begin="0" end="3600"/>
    <flow id="-169502395#0_-35429002#1.1.qPKW" departSpeed="max" departPos="last" departLane="best" route="-169502395#0_-35429002#1.1.qPKW" number="1" begin="0" end="3600"/>
    <flow id="-169502395#0_23902803#4.2.qPKW" departSpeed="max" departPos="last" departLane="best" route="-169502395#0_23902803#4.2.qPKW" number="1" begin="0" end="3600"/>
    <flow id="-169502395#0_59652360#0.qPKW" departSpeed="max" departPos="last" departLane="best" route="-169502395#0_59652360#0.qPKW" number="1" begin="0" end="3600"/>
    <flow id="-169502395#0_-35429002#1.2.qPKW" departSpeed="max" departPos="last" departLane="best" route="-169502395#0_-35429002#1.2.qPKW" number="1" begin="0" end="3600"/>
    <flow id="-169502395#0_59652360#0.1.qPKW" departSpeed="max" departPos="last" departLane="best" route="-169502395#0_59652360#0.1.qPKW" number="1" begin="0" end="3600"/>
    <flow id="-169502395#0_-23902803#4.qPKW" departSpeed="max" departPos="last" departLane="best" route="-169502395#0_-23902803#4.qPKW" number="1" begin="0" end="3600"/>
    <flow id="-169502395#0_-23902803#4.1.qPKW" departSpeed="max" departPos="last" departLane="best" route="-169502395#0_-23902803#4.1.qPKW" number="2" begin="0" end="3600"/>
    <flow id="-169502395#0_23902803#4.3.qPKW" departSpeed="max" departPos="last" departLane="best" route="-169502395#0_23902803#4.3.qPKW" number="1" begin="0" end="3600"/>
    <flow id="-169502395#0_-35429002#1.3.qPKW" departSpeed="max" departPos="last" departLane="best" route="-169502395#0_-35429002#1.3.qPKW" number="1" begin="0" end="3600"/>
    <flow id="-169502395#0_-23902803#4.2.qPKW" departSpeed="max" departPos="last" departLane="best" route="-169502395#0_-23902803#4.2.qPKW" number="1" begin="0" end="3600"/>
    <flow id="-169502395#0_59652360#0.2.qPKW" departSpeed="max" departPos="last" departLane="best" route="-169502395#0_59652360#0.2.qPKW" number="1" begin="0" end="3600"/>
    <flow id="-169502395#0_-23902803#4.3.qPKW" departSpeed="max" departPos="last" departLane="best" route="-169502395#0_-23902803#4.3.qPKW" number="1" begin="0" end="3600"/>
    <flow id="-169502395#0_-59652360#0.qPKW" departSpeed="max" departPos="last" departLane="best" route="-169502395#0_-59652360#0.qPKW" number="1" begin="0" end="3600"/>
    <flow id="-169502395#0_59652360#0.3.qPKW" departSpeed="max" departPos="last" departLane="best" route="-169502395#0_59652360#0.3.qPKW" number="1" begin="0" end="3600"/>
    <flow id="-169502395#0_-23902803#4.4.qPKW" departSpeed="max" departPos="last" departLane="best" route="-169502395#0_-23902803#4.4.qPKW" number="2" begin="0" end="3600"/>
    <flow id="-169502395#0_-23902803#4.5.qPKW" departSpeed="max" departPos="last" departLane="best" route="-169502395#0_-23902803#4.5.qPKW" number="1" begin="0" end="3600"/>
    <flow id="-23263403#1_-96536479.qPKW" departSpeed="max" departPos="last" departLane="best" route="-23263403#1_-96536479.qPKW" number="53" begin="0" end="3600"/>
    <flow id="-23263403#1_13637284#1.qPKW" departSpeed="max" departPos="last" departLane="best" route="-23263403#1_13637284#1.qPKW" number="14" begin="0" end="3600"/>
    <flow id="-23263403#1_-13860618#4.qPKW" departSpeed="max" departPos="last" departLane="best" route="-23263403#1_-13860618#4.qPKW" number="65" begin="0" end="3600"/>
    <flow id="-23263403#1_13860618#4.qPKW" departSpeed="max" departPos="last" departLane="best" route="-23263403#1_13860618#4.qPKW" number="53" begin="0" end="3600"/>
    <flow id="-23263403#1_-40712921.qPKW" departSpeed="max" departPos="last" departLane="best" route="-23263403#1_-40712921.qPKW" number="1" begin="0" end="3600"/>
    <flow id="-23263403#1_103598245#1.qPKW" departSpeed="max" departPos="last" departLane="best" route="-23263403#1_103598245#1.qPKW" number="3" begin="0" end="3600"/>
    <flow id="-23263403#1_-96536479.1.qPKW" departSpeed="max" departPos="last" departLane="best" route="-23263403#1_-96536479.1.qPKW" number="10" begin="0" end="3600"/>
    <flow id="-23263403#1_13637284#1.1.qPKW" departSpeed="max" departPos="last" departLane="best" route="-23263403#1_13637284#1.1.qPKW" number="68" begin="0" end="3600"/>
    <flow id="-23263403#1_13637284#1.2.qPKW" departSpeed="max" departPos="last" departLane="best" route="-23263403#1_13637284#1.2.qPKW" number="78" begin="0" end="3600"/>
    <flow id="-23263403#1_40712913#0.qPKW" departSpeed="max" departPos="last" departLane="best" route="-23263403#1_40712913#0.qPKW" number="2" begin="0" end="3600"/>
    <flow id="-23263403#1_44362701.qPKW" departSpeed="max" departPos="last" departLane="best" route="-23263403#1_44362701.qPKW" number="89" begin="0" end="3600"/>
    <flow id="-23263403#1_60187191.qPKW" departSpeed="max" departPos="last" departLane="best" route="-23263403#1_60187191.qPKW" number="50" begin="0" end="3600"/>
    <flow id="-23263403#1_-60187252#5.qPKW" departSpeed="max" departPos="last" departLane="best" route="-23263403#1_-60187252#5.qPKW" number="16" begin="0" end="3600"/>
    <flow id="-23263403#1_44362701.1.qPKW" departSpeed="max" departPos="last" departLane="best" route="-23263403#1_44362701.1.qPKW" number="221" begin="0" end="3600"/>
    <flow id="-24540305#0_31553552#0.qPKW" departSpeed="max" departPos="last" departLane="best" route="-24540305#0_31553552#0.qPKW" number="10" begin="0" end="3600"/>
    <flow id="-24540305#0_-87834848#2.qPKW" departSpeed="max" departPos="last" departLane="best" route="-24540305#0_-87834848#2.qPKW" number="1" begin="0" end="3600"/>
    <flow id="-24540305#0_-60861135#10.qPKW" departSpeed="max" departPos="last" departLane="best" route="-24540305#0_-60861135#10.qPKW" number="1" begin="0" end="3600"/>
    <flow id="-24540305#0_-194817316.qPKW" departSpeed="max" departPos="last" departLane="best" route="-24540305#0_-194817316.qPKW" number="40" begin="0" end="3600"/>
    <flow id="-24540305#0_-87834848#2.1.qPKW" departSpeed="max" departPos="last" departLane="best" route="-24540305#0_-87834848#2.1.qPKW" number="2" begin="0" end="3600"/>
    <flow id="-26584579#2_-59652360#0.qPKW" departSpeed="max" departPos="last" departLane="best" route="-26584579#2_-59652360#0.qPKW" number="5" begin="0" end="3600"/>
    <flow id="-26584579#2_-139240249.qPKW" departSpeed="max" departPos="last" departLane="best" route="-26584579#2_-139240249.qPKW" number="17" begin="0" end="3600"/>
    <flow id="-37073984#1_4542900.qPKW" departSpeed="max" departPos="last" departLane="best" route="-37073984#1_4542900.qPKW" number="293" begin="0" end="3600"/>
    <flow id="-411024536#8_41873273.qPKW" departSpeed="max" departPos="last" departLane="best" route="-411024536#8_41873273.qPKW" number="127" begin="0" end="3600"/>
    <flow id="-411024536#8_-41873273.qPKW" departSpeed="max" departPos="last" departLane="best" route="-411024536#8_-41873273.qPKW" number="95" begin="0" end="3600"/>
    <flow id="-43093736#8_31553552#0.qPKW" departSpeed="max" departPos="last" departLane="best" route="-43093736#8_31553552#0.qPKW" number="2" begin="0" end="3600"/>
    <flow id="-43093736#8_-31553552#1.qPKW" departSpeed="max" departPos="last" departLane="best" route="-43093736#8_-31553552#1.qPKW" number="28" begin="0" end="3600"/>
    <flow id="-44895507_31553552#0.qPKW" departSpeed="max" departPos="last" departLane="best" route="-44895507_31553552#0.qPKW" number="2" begin="0" end="3600"/>
    <flow id="-44895507_-59652360#0.qPKW" departSpeed="max" departPos="last" departLane="best" route="-44895507_-59652360#0.qPKW" number="1" begin="0" end="3600"/>
    <flow id="-44895507_23902803#4.qPKW" departSpeed="max" departPos="last" departLane="best" route="-44895507_23902803#4.qPKW" number="1" begin="0" end="3600"/>
    <flow id="-44895507_-23902803#4.qPKW" departSpeed="max" departPos="last" departLane="best" route="-44895507_-23902803#4.qPKW" number="1" begin="0" end="3600"/>
    <flow id="-44895507_-35429002#1.qPKW" departSpeed="max" departPos="last" departLane="best" route="-44895507_-35429002#1.qPKW" number="1" begin="0" end="3600"/>
    <flow id="-65331895_-60187251#2.qPKW" departSpeed="max" departPos="last" departLane="best" route="-65331895_-60187251#2.qPKW" number="6" begin="0" end="3600"/>
    <flow id="-65331895_-87834848#2.qPKW" departSpeed="max" departPos="last" departLane="best" route="-65331895_-87834848#2.qPKW" number="37" begin="0" end="3600"/>
    <flow id="-65331895_-60187251#2.1.qPKW" departSpeed="max" departPos="last" departLane="best" route="-65331895_-60187251#2.1.qPKW" number="3" begin="0" end="3600"/>
    <flow id="-65331895_-87834848#2.1.qPKW" departSpeed="max" departPos="last" departLane="best" route="-65331895_-87834848#2.1.qPKW" number="33" begin="0" end="3600"/>
    <flow id="-65331895_31553552#0.qPKW" departSpeed="max" departPos="last" departLane="best" route="-65331895_31553552#0.qPKW" number="6" begin="0" end="3600"/>
    <flow id="-65331895_-35429002#1.qPKW" departSpeed="max" departPos="last" departLane="best" route="-65331895_-35429002#1.qPKW" number="1" begin="0" end="3600"/>
    <flow id="-65331895_87834848#2.qPKW" departSpeed="max" departPos="last" departLane="best" route="-65331895_87834848#2.qPKW" number="36" begin="0" end="3600"/>
    <flow id="-65331895_-60187251#2.2.qPKW" departSpeed="max" departPos="last" departLane="best" route="-65331895_-60187251#2.2.qPKW" number="57" begin="0" end="3600"/>
    <flow id="10231352#0_-129215666#3.qPKW" departSpeed="max" departPos="last" departLane="best" route="10231352#0_-129215666#3.qPKW" number="26" begin="0" end="3600"/>
    <flow id="121799518#1_-96536479.qPKW" departSpeed="max" departPos="last" departLane="best" route="121799518#1_-96536479.qPKW" number="31" begin="0" end="3600"/>
    <flow id="121799518#1_-96536483#1.qPKW" departSpeed="max" departPos="last" departLane="best" route="121799518#1_-96536483#1.qPKW" number="78" begin="0" end="3600"/>
    <flow id="135481701#0_4597301#0.qPKW" departSpeed="max" departPos="last" departLane="best" route="135481701#0_4597301#0.qPKW" number="966" begin="0" end="3600"/>
    <flow id="135481701#0_23612822#1.qPKW" departSpeed="max" departPos="last" departLane="best" route="135481701#0_23612822#1.qPKW" number="25" begin="0" end="3600"/>
    <flow id="135481701#0_129215666#3.qPKW" departSpeed="max" departPos="last" departLane="best" route="135481701#0_129215666#3.qPKW" number="5" begin="0" end="3600"/>
    <flow id="137918290#1_59652360#0.qPKW" departSpeed="max" departPos="last" departLane="best" route="137918290#1_59652360#0.qPKW" number="38" begin="0" end="3600"/>
    <flow id="139239682#3_-35429002#1.qPKW" departSpeed="max" departPos="last" departLane="best" route="139239682#3_-35429002#1.qPKW" number="3" begin="0" end="3600"/>
    <flow id="15242063#0_165782029#1-AddedOnRampEdge.qPKW" departSpeed="max" departPos="last" departLane="best" route="15242063#0_165782029#1-AddedOnRampEdge.qPKW" number="1016" begin="0" end="3600"/>
    <flow id="22416555-AddedOffRampEdge_60187191.qPKW" departSpeed="max" departPos="last" departLane="best" route="22416555-AddedOffRampEdge_60187191.qPKW" number="179" begin="0" end="3600"/>
    <flow id="22416555-AddedOffRampEdge_129215666#3.qPKW" departSpeed="max" departPos="last" departLane="best" route="22416555-AddedOffRampEdge_129215666#3.qPKW" number="21" begin="0" end="3600"/>
    <flow id="22416555-AddedOffRampEdge_-194817316.qPKW" departSpeed="max" departPos="last" departLane="best" route="22416555-AddedOffRampEdge_-194817316.qPKW" number="3" begin="0" end="3600"/>
    <flow id="22416555-AddedOffRampEdge_103598245#1.qPKW" departSpeed="max" departPos="last" departLane="best" route="22416555-AddedOffRampEdge_103598245#1.qPKW" number="3" begin="0" end="3600"/>
    <flow id="22416555-AddedOffRampEdge_103598245#1.1.qPKW" departSpeed="max" departPos="last" departLane="best" route="22416555-AddedOffRampEdge_103598245#1.1.qPKW" number="3" begin="0" end="3600"/>
    <flow id="22416555-AddedOffRampEdge_103598245#1.2.qPKW" departSpeed="max" departPos="last" departLane="best" route="22416555-AddedOffRampEdge_103598245#1.2.qPKW" number="4" begin="0" end="3600"/>
    <flow id="22416555-AddedOffRampEdge_103598245#1.3.qPKW" departSpeed="max" departPos="last" departLane="best" route="22416555-AddedOffRampEdge_103598245#1.3.qPKW" number="126" begin="0" end="3600"/>
    <flow id="22416555-AddedOffRampEdge_103598245#1.4.qPKW" departSpeed="max" departPos="last" departLane="best" route="22416555-AddedOffRampEdge_103598245#1.4.qPKW" number="3" begin="0" end="3600"/>
    <flow id="22416555-AddedOffRampEdge_103598245#1.5.qPKW" departSpeed="max" departPos="last" departLane="best" route="22416555-AddedOffRampEdge_103598245#1.5.qPKW" number="143" begin="0" end="3600"/>
    <flow id="22416555-AddedOffRampEdge_10267102#1.qPKW" departSpeed="max" departPos="last" departLane="best" route="22416555-AddedOffRampEdge_10267102#1.qPKW" number="1" begin="0" end="3600"/>
    <flow id="22564929_11359735.qPKW" departSpeed="max" departPos="last" departLane="best" route="22564929_11359735.qPKW" number="70" begin="0" end="3600"/>
    <flow id="23494024#1_5608516#0.qPKW" departSpeed="max" departPos="last" departLane="best" route="23494024#1_5608516#0.qPKW" number="6" begin="0" end="3600"/>
    <flow id="23494024#1_165782029#1-AddedOnRampEdge.qPKW" departSpeed="max" departPos="last" departLane="best" route="23494024#1_165782029#1-AddedOnRampEdge.qPKW" number="78" begin="0" end="3600"/>
    <flow id="24540305#0_-41873273.qPKW" departSpeed="max" departPos="last" departLane="best" route="24540305#0_-41873273.qPKW" number="59" begin="0" end="3600"/>
    <flow id="24540305#0_41873273.qPKW" departSpeed="max" departPos="last" departLane="best" route="24540305#0_41873273.qPKW" number="69" begin="0" end="3600"/>
    <flow id="26430168#1_44362701.qPKW" departSpeed="max" departPos="last" departLane="best" route="26430168#1_44362701.qPKW" number="71" begin="0" end="3600"/>
    <flow id="26430168#1_60187191.qPKW" departSpeed="max" departPos="last" departLane="best" route="26430168#1_60187191.qPKW" number="160" begin="0" end="3600"/>
    <flow id="2954656#1_26745406.qPKW" departSpeed="max" departPos="last" departLane="best" route="2954656#1_26745406.qPKW" number="1003" begin="0" end="3600"/>
    <flow id="2954692#1-AddedOnRampEdge_-60187252#5.qPKW" departSpeed="max" departPos="last" departLane="best" route="2954692#1-AddedOnRampEdge_-60187252#5.qPKW" number="5" begin="0" end="3600"/>
    <flow id="2954692#1-AddedOnRampEdge_-157272219#13.qPKW" departSpeed="max" departPos="last" departLane="best" route="2954692#1-AddedOnRampEdge_-157272219#13.qPKW" number="21" begin="0" end="3600"/>
    <flow id="2954692#1-AddedOnRampEdge_-96536479.qPKW" departSpeed="max" departPos="last" departLane="best" route="2954692#1-AddedOnRampEdge_-96536479.qPKW" number="10" begin="0" end="3600"/>
    <flow id="2954692#1-AddedOnRampEdge_60187191.qPKW" departSpeed="max" departPos="last" departLane="best" route="2954692#1-AddedOnRampEdge_60187191.qPKW" number="2" begin="0" end="3600"/>
    <flow id="2954692#1-AddedOnRampEdge_14360987#0.qPKW" departSpeed="max" departPos="last" departLane="best" route="2954692#1-AddedOnRampEdge_14360987#0.qPKW" number="490" begin="0" end="3600"/>
    <flow id="2954692#1-AddedOnRampEdge_37408225#0.qPKW" departSpeed="max" departPos="last" departLane="best" route="2954692#1-AddedOnRampEdge_37408225#0.qPKW" number="271" begin="0" end="3600"/>
    <flow id="2954692#1-AddedOnRampEdge_-22674878#0.qPKW" departSpeed="max" departPos="last" departLane="best" route="2954692#1-AddedOnRampEdge_-22674878#0.qPKW" number="175" begin="0" end="3600"/>
    <flow id="2954692#1-AddedOnRampEdge_10267102#1.qPKW" departSpeed="max" departPos="last" departLane="best" route="2954692#1-AddedOnRampEdge_10267102#1.qPKW" number="39" begin="0" end="3600"/>
    <flow id="2954692#1-AddedOnRampEdge_165782029#1-AddedOnRampEdge.qPKW" departSpeed="max" departPos="last" departLane="best" route="2954692#1-AddedOnRampEdge_165782029#1-AddedOnRampEdge.qPKW" number="24" begin="0" end="3600"/>
    <flow id="2954692#1-AddedOnRampEdge_-22674878#0.1.qPKW" departSpeed="max" departPos="last" departLane="best" route="2954692#1-AddedOnRampEdge_-22674878#0.1.qPKW" number="14" begin="0" end="3600"/>
    <flow id="2954692#1-AddedOnRampEdge_-194817316.qPKW" departSpeed="max" departPos="last" departLane="best" route="2954692#1-AddedOnRampEdge_-194817316.qPKW" number="9" begin="0" end="3600"/>
    <flow id="2954692#1-AddedOnRampEdge_-194817316.1.qPKW" departSpeed="max" departPos="last" departLane="best" route="2954692#1-AddedOnRampEdge_-194817316.1.qPKW" number="5" begin="0" end="3600"/>
    <flow id="2954692#1-AddedOnRampEdge_-35429002#1.qPKW" departSpeed="max" departPos="last" departLane="best" route="2954692#1-AddedOnRampEdge_-35429002#1.qPKW" number="3" begin="0" end="3600"/>
    <flow id="2954692#1-AddedOnRampEdge_-96536479.1.qPKW" departSpeed="max" departPos="last" departLane="best" route="2954692#1-AddedOnRampEdge_-96536479.1.qPKW" number="33" begin="0" end="3600"/>
    <flow id="2954692#1-AddedOnRampEdge_60187191.1.qPKW" departSpeed="max" departPos="last" departLane="best" route="2954692#1-AddedOnRampEdge_60187191.1.qPKW" number="19" begin="0" end="3600"/>
    <flow id="2954692#1-AddedOnRampEdge_-87834848#2.qPKW" departSpeed="max" departPos="last" departLane="best" route="2954692#1-AddedOnRampEdge_-87834848#2.qPKW" number="5" begin="0" end="3600"/>
    <flow id="2954692#1-AddedOnRampEdge_165782029#1-AddedOnRampEdge.1.qPKW" departSpeed="max" departPos="last" departLane="best" route="2954692#1-AddedOnRampEdge_165782029#1-AddedOnRampEdge.1.qPKW" number="152" begin="0" end="3600"/>
    <flow id="2954692#1-AddedOnRampEdge_15242059#0-AddedOffRampEdge.qPKW" departSpeed="max" departPos="last" departLane="best" route="2954692#1-AddedOnRampEdge_15242059#0-AddedOffRampEdge.qPKW" number="3" begin="0" end="3600"/>
    <flow id="2954692#1-AddedOnRampEdge_22674878#0.qPKW" departSpeed="max" departPos="last" departLane="best" route="2954692#1-AddedOnRampEdge_22674878#0.qPKW" number="23" begin="0" end="3600"/>
    <flow id="2954692#1-AddedOnRampEdge_-157272219#13.1.qPKW" departSpeed="max" departPos="last" departLane="best" route="2954692#1-AddedOnRampEdge_-157272219#13.1.qPKW" number="3" begin="0" end="3600"/>
    <flow id="2954692#1-AddedOnRampEdge_15242059#0-AddedOffRampEdge.1.qPKW" departSpeed="max" departPos="last" departLane="best" route="2954692#1-AddedOnRampEdge_15242059#0-AddedOffRampEdge.1.qPKW" number="308" begin="0" end="3600"/>
    <flow id="37073984#0_165782029#1-AddedOnRampEdge.qPKW" departSpeed="max" departPos="last" departLane="best" route="37073984#0_165782029#1-AddedOnRampEdge.qPKW" number="23" begin="0" end="3600"/>
    <flow id="37073984#0_-5608516#2.qPKW" departSpeed="max" departPos="last" departLane="best" route="37073984#0_-5608516#2.qPKW" number="1" begin="0" end="3600"/>
    <flow id="37073984#0_23902803#4.qPKW" departSpeed="max" departPos="last" departLane="best" route="37073984#0_23902803#4.qPKW" number="1" begin="0" end="3600"/>
    <flow id="37073984#0_-23902803#4.qPKW" departSpeed="max" departPos="last" departLane="best" route="37073984#0_-23902803#4.qPKW" number="1" begin="0" end="3600"/>
    <flow id="37073984#0_-5608516#2.1.qPKW" departSpeed="max" departPos="last" departLane="best" route="37073984#0_-5608516#2.1.qPKW" number="1" begin="0" end="3600"/>
    <flow id="37073984#0_165782029#1-AddedOnRampEdge.1.qPKW" departSpeed="max" departPos="last" departLane="best" route="37073984#0_165782029#1-AddedOnRampEdge.1.qPKW" number="1" begin="0" end="3600"/>
    <flow id="37073984#0_-35429002#1.qPKW" departSpeed="max" departPos="last" departLane="best" route="37073984#0_-35429002#1.qPKW" number="3" begin="0" end="3600"/>
    <flow id="37073984#0_-35429002#1.1.qPKW" departSpeed="max" departPos="last" departLane="best" route="37073984#0_-35429002#1.1.qPKW" number="5" begin="0" end="3600"/>
    <flow id="37073984#0_31553552#0.qPKW" departSpeed="max" departPos="last" departLane="best" route="37073984#0_31553552#0.qPKW" number="3" begin="0" end="3600"/>
    <flow id="37073984#0_-35429002#1.2.qPKW" departSpeed="max" departPos="last" departLane="best" route="37073984#0_-35429002#1.2.qPKW" number="96" begin="0" end="3600"/>
    <flow id="37073984#0_35429002#0.qPKW" departSpeed="max" departPos="last" departLane="best" route="37073984#0_35429002#0.qPKW" number="8" begin="0" end="3600"/>
    <flow id="411024536#6_4542900.qPKW" departSpeed="max" departPos="last" departLane="best" route="411024536#6_4542900.qPKW" number="173" begin="0" end="3600"/>
    <flow id="411024536#6_-139240249.qPKW" departSpeed="max" departPos="last" departLane="best" route="411024536#6_-139240249.qPKW" number="65" begin="0" end="3600"/>
    <flow id="41464792#0_5608516#0.qPKW" departSpeed="max" departPos="last" departLane="best" route="41464792#0_5608516#0.qPKW" number="3" begin="0" end="3600"/>
    <flow id="41464792#0_5608516#0.1.qPKW" departSpeed="max" departPos="last" departLane="best" route="41464792#0_5608516#0.1.qPKW" number="1" begin="0" end="3600"/>
    <flow id="41464792#0_103598245#1.qPKW" departSpeed="max" departPos="last" departLane="best" route="41464792#0_103598245#1.qPKW" number="5" begin="0" end="3600"/>
    <flow id="41464792#0_23902803#4.qPKW" departSpeed="max" departPos="last" departLane="best" route="41464792#0_23902803#4.qPKW" number="1" begin="0" end="3600"/>
    <flow id="41464792#0_-23902803#4.qPKW" departSpeed="max" departPos="last" departLane="best" route="41464792#0_-23902803#4.qPKW" number="1" begin="0" end="3600"/>
    <flow id="41464792#0_-23902803#4.1.qPKW" departSpeed="max" departPos="last" departLane="best" route="41464792#0_-23902803#4.1.qPKW" number="1" begin="0" end="3600"/>
    <flow id="41464792#0_-35429002#1.qPKW" departSpeed="max" departPos="last" departLane="best" route="41464792#0_-35429002#1.qPKW" number="1" begin="0" end="3600"/>
    <flow id="41464792#0_23902803#4.1.qPKW" departSpeed="max" departPos="last" departLane="best" route="41464792#0_23902803#4.1.qPKW" number="1" begin="0" end="3600"/>
    <flow id="41464792#0_103598245#1.1.qPKW" departSpeed="max" departPos="last" departLane="best" route="41464792#0_103598245#1.1.qPKW" number="4" begin="0" end="3600"/>
    <flow id="41464792#0_-22674878#0.qPKW" departSpeed="max" departPos="last" departLane="best" route="41464792#0_-22674878#0.qPKW" number="5" begin="0" end="3600"/>
    <flow id="41464792#0_-22674878#0.1.qPKW" departSpeed="max" departPos="last" departLane="best" route="41464792#0_-22674878#0.1.qPKW" number="3" begin="0" end="3600"/>
    <flow id="41464792#0_165782029#1-AddedOnRampEdge.qPKW" departSpeed="max" departPos="last" departLane="best" route="41464792#0_165782029#1-AddedOnRampEdge.qPKW" number="5" begin="0" end="3600"/>
    <flow id="41464792#0_-22674878#0.2.qPKW" departSpeed="max" departPos="last" departLane="best" route="41464792#0_-22674878#0.2.qPKW" number="3" begin="0" end="3600"/>
    <flow id="41464792#0_-22674878#0.3.qPKW" departSpeed="max" departPos="last" departLane="best" route="41464792#0_-22674878#0.3.qPKW" number="3" begin="0" end="3600"/>
    <flow id="41464792#0_16356077#5.qPKW" departSpeed="max" departPos="last" departLane="best" route="41464792#0_16356077#5.qPKW" number="5" begin="0" end="3600"/>
    <flow id="41464792#0_-5608516#2.qPKW" departSpeed="max" departPos="last" departLane="best" route="41464792#0_-5608516#2.qPKW" number="1" begin="0" end="3600"/>
    <flow id="41464792#0_23902803#4.2.qPKW" departSpeed="max" departPos="last" departLane="best" route="41464792#0_23902803#4.2.qPKW" number="1" begin="0" end="3600"/>